
---------- Begin Simulation Statistics ----------
simSeconds                                   0.001615                       # Number of seconds simulated (Second)
simTicks                                   1614773000                       # Number of ticks simulated (Tick)
finalTick                                  1614773000                       # Number of ticks from beginning of simulation (restored from checkpoints and never reset) (Tick)
simFreq                                  1000000000000                       # The number of ticks per simulated second ((Tick/Second))
hostSeconds                                    127.07                       # Real time elapsed on the host (Second)
hostTickRate                                 12707919                       # The number of ticks simulated per host second (ticks/s) ((Tick/Second))
hostMemory                                     706372                       # Number of bytes of host memory used (Byte)
simInsts                                     11462660                       # Number of instructions simulated (Count)
simOps                                       23021547                       # Number of ops (including micro ops) simulated (Count)
hostInstRate                                    90209                       # Simulator instruction rate (inst/s) ((Count/Second))
hostOpRate                                     181174                       # Simulator op (including micro ops) rate (op/s) ((Count/Second))
system.clk_domain.clock                           250                       # Clock period in ticks (Tick)
system.clk_domain.voltage_domain.voltage            1                       # Voltage in Volts (Volt)
system.cpu.numCycles                          6459093                       # Number of cpu cycles simulated (Cycle)
system.cpu.cpi                               0.563490                       # CPI: cycles per instruction (core level) ((Cycle/Count))
system.cpu.ipc                               1.774655                       # IPC: instructions per cycle (core level) ((Count/Cycle))
system.cpu.numWorkItemsStarted                      0                       # Number of work items this cpu started (Count)
system.cpu.numWorkItemsCompleted                    0                       # Number of work items this cpu completed (Count)
system.cpu.instsAdded                        23467598                       # Number of instructions added to the IQ (excludes non-spec) (Count)
system.cpu.nonSpecInstsAdded                       96                       # Number of non-speculative instructions added to the IQ (Count)
system.cpu.instsIssued                       23371093                       # Number of instructions issued (Count)
system.cpu.squashedInstsIssued                   1506                       # Number of squashed instructions issued (Count)
system.cpu.squashedInstsExamined               446141                       # Number of squashed instructions iterated over during squash; mainly for profiling (Count)
system.cpu.squashedOperandsExamined            556468                       # Number of squashed operands that are examined and possibly removed from graph (Count)
system.cpu.squashedNonSpecRemoved                  60                       # Number of squashed non-spec instructions that were removed (Count)
system.cpu.numIssuedDist::samples             6290908                       # Number of insts issued each cycle (Count)
system.cpu.numIssuedDist::mean               3.715059                       # Number of insts issued each cycle (Count)
system.cpu.numIssuedDist::stdev              2.291263                       # Number of insts issued each cycle (Count)
system.cpu.numIssuedDist::underflows                0      0.00%      0.00% # Number of insts issued each cycle (Count)
system.cpu.numIssuedDist::0                    859415     13.66%     13.66% # Number of insts issued each cycle (Count)
system.cpu.numIssuedDist::1                    327698      5.21%     18.87% # Number of insts issued each cycle (Count)
system.cpu.numIssuedDist::2                    745231     11.85%     30.72% # Number of insts issued each cycle (Count)
system.cpu.numIssuedDist::3                   1000954     15.91%     46.63% # Number of insts issued each cycle (Count)
system.cpu.numIssuedDist::4                    834120     13.26%     59.89% # Number of insts issued each cycle (Count)
system.cpu.numIssuedDist::5                    950999     15.12%     75.00% # Number of insts issued each cycle (Count)
system.cpu.numIssuedDist::6                    796993     12.67%     87.67% # Number of insts issued each cycle (Count)
system.cpu.numIssuedDist::7                    527346      8.38%     96.06% # Number of insts issued each cycle (Count)
system.cpu.numIssuedDist::8                    248152      3.94%    100.00% # Number of insts issued each cycle (Count)
system.cpu.numIssuedDist::overflows                 0      0.00%    100.00% # Number of insts issued each cycle (Count)
system.cpu.numIssuedDist::min_value                 0                       # Number of insts issued each cycle (Count)
system.cpu.numIssuedDist::max_value                 8                       # Number of insts issued each cycle (Count)
system.cpu.numIssuedDist::total               6290908                       # Number of insts issued each cycle (Count)
system.cpu.statFuBusy::No_OpClass                   0      0.00%      0.00% # attempts to use FU when none available (Count)
system.cpu.statFuBusy::IntAlu                  358152     87.09%     87.09% # attempts to use FU when none available (Count)
system.cpu.statFuBusy::IntMult                      0      0.00%     87.09% # attempts to use FU when none available (Count)
system.cpu.statFuBusy::IntDiv                       0      0.00%     87.09% # attempts to use FU when none available (Count)
system.cpu.statFuBusy::FloatAdd                     0      0.00%     87.09% # attempts to use FU when none available (Count)
system.cpu.statFuBusy::FloatCmp                     0      0.00%     87.09% # attempts to use FU when none available (Count)
system.cpu.statFuBusy::FloatCvt                     0      0.00%     87.09% # attempts to use FU when none available (Count)
system.cpu.statFuBusy::FloatMult                    0      0.00%     87.09% # attempts to use FU when none available (Count)
system.cpu.statFuBusy::FloatMultAcc                 0      0.00%     87.09% # attempts to use FU when none available (Count)
system.cpu.statFuBusy::FloatDiv                     0      0.00%     87.09% # attempts to use FU when none available (Count)
system.cpu.statFuBusy::FloatMisc                    0      0.00%     87.09% # attempts to use FU when none available (Count)
system.cpu.statFuBusy::FloatSqrt                    0      0.00%     87.09% # attempts to use FU when none available (Count)
system.cpu.statFuBusy::SimdAdd                      1      0.00%     87.09% # attempts to use FU when none available (Count)
system.cpu.statFuBusy::SimdAddAcc                   0      0.00%     87.09% # attempts to use FU when none available (Count)
system.cpu.statFuBusy::SimdAlu                  16253      3.95%     91.05% # attempts to use FU when none available (Count)
system.cpu.statFuBusy::SimdCmp                     15      0.00%     91.05% # attempts to use FU when none available (Count)
system.cpu.statFuBusy::SimdCvt                   1924      0.47%     91.52% # attempts to use FU when none available (Count)
system.cpu.statFuBusy::SimdMisc                  5026      1.22%     92.74% # attempts to use FU when none available (Count)
system.cpu.statFuBusy::SimdMult                 17500      4.26%     96.99% # attempts to use FU when none available (Count)
system.cpu.statFuBusy::SimdMultAcc                  0      0.00%     96.99% # attempts to use FU when none available (Count)
system.cpu.statFuBusy::SimdMatMultAcc               0      0.00%     96.99% # attempts to use FU when none available (Count)
system.cpu.statFuBusy::SimdShift                 9956      2.42%     99.42% # attempts to use FU when none available (Count)
system.cpu.statFuBusy::SimdShiftAcc                 0      0.00%     99.42% # attempts to use FU when none available (Count)
system.cpu.statFuBusy::SimdDiv                      0      0.00%     99.42% # attempts to use FU when none available (Count)
system.cpu.statFuBusy::SimdSqrt                     0      0.00%     99.42% # attempts to use FU when none available (Count)
system.cpu.statFuBusy::SimdFloatAdd                 0      0.00%     99.42% # attempts to use FU when none available (Count)
system.cpu.statFuBusy::SimdFloatAlu                 0      0.00%     99.42% # attempts to use FU when none available (Count)
system.cpu.statFuBusy::SimdFloatCmp                 0      0.00%     99.42% # attempts to use FU when none available (Count)
system.cpu.statFuBusy::SimdFloatCvt                 0      0.00%     99.42% # attempts to use FU when none available (Count)
system.cpu.statFuBusy::SimdFloatDiv                 0      0.00%     99.42% # attempts to use FU when none available (Count)
system.cpu.statFuBusy::SimdFloatMisc                0      0.00%     99.42% # attempts to use FU when none available (Count)
system.cpu.statFuBusy::SimdFloatMult                0      0.00%     99.42% # attempts to use FU when none available (Count)
system.cpu.statFuBusy::SimdFloatMultAcc             0      0.00%     99.42% # attempts to use FU when none available (Count)
system.cpu.statFuBusy::SimdFloatMatMultAcc            0      0.00%     99.42% # attempts to use FU when none available (Count)
system.cpu.statFuBusy::SimdFloatSqrt                0      0.00%     99.42% # attempts to use FU when none available (Count)
system.cpu.statFuBusy::SimdReduceAdd                0      0.00%     99.42% # attempts to use FU when none available (Count)
system.cpu.statFuBusy::SimdReduceAlu                0      0.00%     99.42% # attempts to use FU when none available (Count)
system.cpu.statFuBusy::SimdReduceCmp                0      0.00%     99.42% # attempts to use FU when none available (Count)
system.cpu.statFuBusy::SimdFloatReduceAdd            0      0.00%     99.42% # attempts to use FU when none available (Count)
system.cpu.statFuBusy::SimdFloatReduceCmp            0      0.00%     99.42% # attempts to use FU when none available (Count)
system.cpu.statFuBusy::SimdAes                      0      0.00%     99.42% # attempts to use FU when none available (Count)
system.cpu.statFuBusy::SimdAesMix                   0      0.00%     99.42% # attempts to use FU when none available (Count)
system.cpu.statFuBusy::SimdSha1Hash                 0      0.00%     99.42% # attempts to use FU when none available (Count)
system.cpu.statFuBusy::SimdSha1Hash2                0      0.00%     99.42% # attempts to use FU when none available (Count)
system.cpu.statFuBusy::SimdSha256Hash               0      0.00%     99.42% # attempts to use FU when none available (Count)
system.cpu.statFuBusy::SimdSha256Hash2              0      0.00%     99.42% # attempts to use FU when none available (Count)
system.cpu.statFuBusy::SimdShaSigma2                0      0.00%     99.42% # attempts to use FU when none available (Count)
system.cpu.statFuBusy::SimdShaSigma3                0      0.00%     99.42% # attempts to use FU when none available (Count)
system.cpu.statFuBusy::SimdPredAlu                  0      0.00%     99.42% # attempts to use FU when none available (Count)
system.cpu.statFuBusy::Matrix                       0      0.00%     99.42% # attempts to use FU when none available (Count)
system.cpu.statFuBusy::MatrixMov                    0      0.00%     99.42% # attempts to use FU when none available (Count)
system.cpu.statFuBusy::MatrixOP                     0      0.00%     99.42% # attempts to use FU when none available (Count)
system.cpu.statFuBusy::MemRead                    756      0.18%     99.60% # attempts to use FU when none available (Count)
system.cpu.statFuBusy::MemWrite                   490      0.12%     99.72% # attempts to use FU when none available (Count)
system.cpu.statFuBusy::FloatMemRead               985      0.24%     99.96% # attempts to use FU when none available (Count)
system.cpu.statFuBusy::FloatMemWrite              173      0.04%    100.00% # attempts to use FU when none available (Count)
system.cpu.statFuBusy::IprAccess                    0      0.00%    100.00% # attempts to use FU when none available (Count)
system.cpu.statFuBusy::InstPrefetch                 0      0.00%    100.00% # attempts to use FU when none available (Count)
system.cpu.statFuBusy::SimdUnitStrideLoad            0      0.00%    100.00% # attempts to use FU when none available (Count)
system.cpu.statFuBusy::SimdUnitStrideStore            0      0.00%    100.00% # attempts to use FU when none available (Count)
system.cpu.statFuBusy::SimdUnitStrideMaskLoad            0      0.00%    100.00% # attempts to use FU when none available (Count)
system.cpu.statFuBusy::SimdUnitStrideMaskStore            0      0.00%    100.00% # attempts to use FU when none available (Count)
system.cpu.statFuBusy::SimdStridedLoad              0      0.00%    100.00% # attempts to use FU when none available (Count)
system.cpu.statFuBusy::SimdStridedStore             0      0.00%    100.00% # attempts to use FU when none available (Count)
system.cpu.statFuBusy::SimdIndexedLoad              0      0.00%    100.00% # attempts to use FU when none available (Count)
system.cpu.statFuBusy::SimdIndexedStore             0      0.00%    100.00% # attempts to use FU when none available (Count)
system.cpu.statFuBusy::SimdWholeRegisterLoad            0      0.00%    100.00% # attempts to use FU when none available (Count)
system.cpu.statFuBusy::SimdWholeRegisterStore            0      0.00%    100.00% # attempts to use FU when none available (Count)
system.cpu.statFuBusy::SimdUnitStrideFaultOnlyFirstLoad            0      0.00%    100.00% # attempts to use FU when none available (Count)
system.cpu.statFuBusy::SimdUnitStrideSegmentedLoad            0      0.00%    100.00% # attempts to use FU when none available (Count)
system.cpu.statFuBusy::SimdUnitStrideSegmentedStore            0      0.00%    100.00% # attempts to use FU when none available (Count)
system.cpu.statFuBusy::SimdUnitStrideSegmentedFaultOnlyFirstLoad            0      0.00%    100.00% # attempts to use FU when none available (Count)
system.cpu.statFuBusy::SimdStrideSegmentedLoad            0      0.00%    100.00% # attempts to use FU when none available (Count)
system.cpu.statFuBusy::SimdStrideSegmentedStore            0      0.00%    100.00% # attempts to use FU when none available (Count)
system.cpu.statFuBusy::SimdExt                      0      0.00%    100.00% # attempts to use FU when none available (Count)
system.cpu.statFuBusy::SimdFloatExt                 0      0.00%    100.00% # attempts to use FU when none available (Count)
system.cpu.statFuBusy::SimdConfig                   0      0.00%    100.00% # attempts to use FU when none available (Count)
system.cpu.statFuBusy::SimdBf16Cvt                  0      0.00%    100.00% # attempts to use FU when none available (Count)
system.cpu.statFuBusy::SimdBf16DotProd              0      0.00%    100.00% # attempts to use FU when none available (Count)
system.cpu.statFuBusy::SimdBf16MatMultAcc            0      0.00%    100.00% # attempts to use FU when none available (Count)
system.cpu.statFuBusy::SimdBf16MultAcc              0      0.00%    100.00% # attempts to use FU when none available (Count)
system.cpu.statFuBusy::Bf16Cvt                      0      0.00%    100.00% # attempts to use FU when none available (Count)
system.cpu.issuedInstType_0::No_OpClass        464539      1.99%      1.99% # Number of instructions issued per FU type, per thread (Count)
system.cpu.issuedInstType_0::IntAlu          17968555     76.88%     78.87% # Number of instructions issued per FU type, per thread (Count)
system.cpu.issuedInstType_0::IntMult           137738      0.59%     79.46% # Number of instructions issued per FU type, per thread (Count)
system.cpu.issuedInstType_0::IntDiv              1822      0.01%     79.47% # Number of instructions issued per FU type, per thread (Count)
system.cpu.issuedInstType_0::FloatAdd           43341      0.19%     79.65% # Number of instructions issued per FU type, per thread (Count)
system.cpu.issuedInstType_0::FloatCmp               0      0.00%     79.65% # Number of instructions issued per FU type, per thread (Count)
system.cpu.issuedInstType_0::FloatCvt               0      0.00%     79.65% # Number of instructions issued per FU type, per thread (Count)
system.cpu.issuedInstType_0::FloatMult              0      0.00%     79.65% # Number of instructions issued per FU type, per thread (Count)
system.cpu.issuedInstType_0::FloatMultAcc            0      0.00%     79.65% # Number of instructions issued per FU type, per thread (Count)
system.cpu.issuedInstType_0::FloatDiv               0      0.00%     79.65% # Number of instructions issued per FU type, per thread (Count)
system.cpu.issuedInstType_0::FloatMisc              0      0.00%     79.65% # Number of instructions issued per FU type, per thread (Count)
system.cpu.issuedInstType_0::FloatSqrt              0      0.00%     79.65% # Number of instructions issued per FU type, per thread (Count)
system.cpu.issuedInstType_0::SimdAdd            30920      0.13%     79.79% # Number of instructions issued per FU type, per thread (Count)
system.cpu.issuedInstType_0::SimdAddAcc             0      0.00%     79.79% # Number of instructions issued per FU type, per thread (Count)
system.cpu.issuedInstType_0::SimdAlu           278009      1.19%     80.98% # Number of instructions issued per FU type, per thread (Count)
system.cpu.issuedInstType_0::SimdCmp              396      0.00%     80.98% # Number of instructions issued per FU type, per thread (Count)
system.cpu.issuedInstType_0::SimdCvt           174158      0.75%     81.72% # Number of instructions issued per FU type, per thread (Count)
system.cpu.issuedInstType_0::SimdMisc          444780      1.90%     83.63% # Number of instructions issued per FU type, per thread (Count)
system.cpu.issuedInstType_0::SimdMult           68165      0.29%     83.92% # Number of instructions issued per FU type, per thread (Count)
system.cpu.issuedInstType_0::SimdMultAcc            0      0.00%     83.92% # Number of instructions issued per FU type, per thread (Count)
system.cpu.issuedInstType_0::SimdMatMultAcc            0      0.00%     83.92% # Number of instructions issued per FU type, per thread (Count)
system.cpu.issuedInstType_0::SimdShift          37972      0.16%     84.08% # Number of instructions issued per FU type, per thread (Count)
system.cpu.issuedInstType_0::SimdShiftAcc            0      0.00%     84.08% # Number of instructions issued per FU type, per thread (Count)
system.cpu.issuedInstType_0::SimdDiv                0      0.00%     84.08% # Number of instructions issued per FU type, per thread (Count)
system.cpu.issuedInstType_0::SimdSqrt               0      0.00%     84.08% # Number of instructions issued per FU type, per thread (Count)
system.cpu.issuedInstType_0::SimdFloatAdd            0      0.00%     84.08% # Number of instructions issued per FU type, per thread (Count)
system.cpu.issuedInstType_0::SimdFloatAlu            0      0.00%     84.08% # Number of instructions issued per FU type, per thread (Count)
system.cpu.issuedInstType_0::SimdFloatCmp            0      0.00%     84.08% # Number of instructions issued per FU type, per thread (Count)
system.cpu.issuedInstType_0::SimdFloatCvt            0      0.00%     84.08% # Number of instructions issued per FU type, per thread (Count)
system.cpu.issuedInstType_0::SimdFloatDiv            0      0.00%     84.08% # Number of instructions issued per FU type, per thread (Count)
system.cpu.issuedInstType_0::SimdFloatMisc            0      0.00%     84.08% # Number of instructions issued per FU type, per thread (Count)
system.cpu.issuedInstType_0::SimdFloatMult            0      0.00%     84.08% # Number of instructions issued per FU type, per thread (Count)
system.cpu.issuedInstType_0::SimdFloatMultAcc            0      0.00%     84.08% # Number of instructions issued per FU type, per thread (Count)
system.cpu.issuedInstType_0::SimdFloatMatMultAcc            0      0.00%     84.08% # Number of instructions issued per FU type, per thread (Count)
system.cpu.issuedInstType_0::SimdFloatSqrt            0      0.00%     84.08% # Number of instructions issued per FU type, per thread (Count)
system.cpu.issuedInstType_0::SimdReduceAdd            0      0.00%     84.08% # Number of instructions issued per FU type, per thread (Count)
system.cpu.issuedInstType_0::SimdReduceAlu            0      0.00%     84.08% # Number of instructions issued per FU type, per thread (Count)
system.cpu.issuedInstType_0::SimdReduceCmp            0      0.00%     84.08% # Number of instructions issued per FU type, per thread (Count)
system.cpu.issuedInstType_0::SimdFloatReduceAdd            0      0.00%     84.08% # Number of instructions issued per FU type, per thread (Count)
system.cpu.issuedInstType_0::SimdFloatReduceCmp            0      0.00%     84.08% # Number of instructions issued per FU type, per thread (Count)
system.cpu.issuedInstType_0::SimdAes                0      0.00%     84.08% # Number of instructions issued per FU type, per thread (Count)
system.cpu.issuedInstType_0::SimdAesMix             0      0.00%     84.08% # Number of instructions issued per FU type, per thread (Count)
system.cpu.issuedInstType_0::SimdSha1Hash            0      0.00%     84.08% # Number of instructions issued per FU type, per thread (Count)
system.cpu.issuedInstType_0::SimdSha1Hash2            0      0.00%     84.08% # Number of instructions issued per FU type, per thread (Count)
system.cpu.issuedInstType_0::SimdSha256Hash            0      0.00%     84.08% # Number of instructions issued per FU type, per thread (Count)
system.cpu.issuedInstType_0::SimdSha256Hash2            0      0.00%     84.08% # Number of instructions issued per FU type, per thread (Count)
system.cpu.issuedInstType_0::SimdShaSigma2            0      0.00%     84.08% # Number of instructions issued per FU type, per thread (Count)
system.cpu.issuedInstType_0::SimdShaSigma3            0      0.00%     84.08% # Number of instructions issued per FU type, per thread (Count)
system.cpu.issuedInstType_0::SimdPredAlu            0      0.00%     84.08% # Number of instructions issued per FU type, per thread (Count)
system.cpu.issuedInstType_0::Matrix                 0      0.00%     84.08% # Number of instructions issued per FU type, per thread (Count)
system.cpu.issuedInstType_0::MatrixMov              0      0.00%     84.08% # Number of instructions issued per FU type, per thread (Count)
system.cpu.issuedInstType_0::MatrixOP               0      0.00%     84.08% # Number of instructions issued per FU type, per thread (Count)
system.cpu.issuedInstType_0::MemRead          2068065      8.85%     92.93% # Number of instructions issued per FU type, per thread (Count)
system.cpu.issuedInstType_0::MemWrite         1368432      5.86%     98.78% # Number of instructions issued per FU type, per thread (Count)
system.cpu.issuedInstType_0::FloatMemRead       227643      0.97%     99.76% # Number of instructions issued per FU type, per thread (Count)
system.cpu.issuedInstType_0::FloatMemWrite        56558      0.24%    100.00% # Number of instructions issued per FU type, per thread (Count)
system.cpu.issuedInstType_0::IprAccess              0      0.00%    100.00% # Number of instructions issued per FU type, per thread (Count)
system.cpu.issuedInstType_0::InstPrefetch            0      0.00%    100.00% # Number of instructions issued per FU type, per thread (Count)
system.cpu.issuedInstType_0::SimdUnitStrideLoad            0      0.00%    100.00% # Number of instructions issued per FU type, per thread (Count)
system.cpu.issuedInstType_0::SimdUnitStrideStore            0      0.00%    100.00% # Number of instructions issued per FU type, per thread (Count)
system.cpu.issuedInstType_0::SimdUnitStrideMaskLoad            0      0.00%    100.00% # Number of instructions issued per FU type, per thread (Count)
system.cpu.issuedInstType_0::SimdUnitStrideMaskStore            0      0.00%    100.00% # Number of instructions issued per FU type, per thread (Count)
system.cpu.issuedInstType_0::SimdStridedLoad            0      0.00%    100.00% # Number of instructions issued per FU type, per thread (Count)
system.cpu.issuedInstType_0::SimdStridedStore            0      0.00%    100.00% # Number of instructions issued per FU type, per thread (Count)
system.cpu.issuedInstType_0::SimdIndexedLoad            0      0.00%    100.00% # Number of instructions issued per FU type, per thread (Count)
system.cpu.issuedInstType_0::SimdIndexedStore            0      0.00%    100.00% # Number of instructions issued per FU type, per thread (Count)
system.cpu.issuedInstType_0::SimdWholeRegisterLoad            0      0.00%    100.00% # Number of instructions issued per FU type, per thread (Count)
system.cpu.issuedInstType_0::SimdWholeRegisterStore            0      0.00%    100.00% # Number of instructions issued per FU type, per thread (Count)
system.cpu.issuedInstType_0::SimdUnitStrideFaultOnlyFirstLoad            0      0.00%    100.00% # Number of instructions issued per FU type, per thread (Count)
system.cpu.issuedInstType_0::SimdUnitStrideSegmentedLoad            0      0.00%    100.00% # Number of instructions issued per FU type, per thread (Count)
system.cpu.issuedInstType_0::SimdUnitStrideSegmentedStore            0      0.00%    100.00% # Number of instructions issued per FU type, per thread (Count)
system.cpu.issuedInstType_0::SimdUnitStrideSegmentedFaultOnlyFirstLoad            0      0.00%    100.00% # Number of instructions issued per FU type, per thread (Count)
system.cpu.issuedInstType_0::SimdStrideSegmentedLoad            0      0.00%    100.00% # Number of instructions issued per FU type, per thread (Count)
system.cpu.issuedInstType_0::SimdStrideSegmentedStore            0      0.00%    100.00% # Number of instructions issued per FU type, per thread (Count)
system.cpu.issuedInstType_0::SimdExt                0      0.00%    100.00% # Number of instructions issued per FU type, per thread (Count)
system.cpu.issuedInstType_0::SimdFloatExt            0      0.00%    100.00% # Number of instructions issued per FU type, per thread (Count)
system.cpu.issuedInstType_0::SimdConfig             0      0.00%    100.00% # Number of instructions issued per FU type, per thread (Count)
system.cpu.issuedInstType_0::SimdBf16Cvt            0      0.00%    100.00% # Number of instructions issued per FU type, per thread (Count)
system.cpu.issuedInstType_0::SimdBf16DotProd            0      0.00%    100.00% # Number of instructions issued per FU type, per thread (Count)
system.cpu.issuedInstType_0::SimdBf16MatMultAcc            0      0.00%    100.00% # Number of instructions issued per FU type, per thread (Count)
system.cpu.issuedInstType_0::SimdBf16MultAcc            0      0.00%    100.00% # Number of instructions issued per FU type, per thread (Count)
system.cpu.issuedInstType_0::Bf16Cvt                0      0.00%    100.00% # Number of instructions issued per FU type, per thread (Count)
system.cpu.issuedInstType_0::total           23371093                       # Number of instructions issued per FU type, per thread (Count)
system.cpu.issueRate                         3.618324                       # Inst issue rate ((Count/Cycle))
system.cpu.fuBusy                              411231                       # FU busy when requested (Count)
system.cpu.fuBusyRate                        0.017596                       # FU busy rate (busy events/executed inst) ((Count/Count))
system.cpu.intInstQueueReads                 50371260                       # Number of integer instruction queue reads (Count)
system.cpu.intInstQueueWrites                22389597                       # Number of integer instruction queue writes (Count)
system.cpu.intInstQueueWakeupAccesses        21805148                       # Number of integer instruction queue wakeup accesses (Count)
system.cpu.fpInstQueueReads                   3074571                       # Number of floating instruction queue reads (Count)
system.cpu.fpInstQueueWrites                  1524341                       # Number of floating instruction queue writes (Count)
system.cpu.fpInstQueueWakeupAccesses          1499202                       # Number of floating instruction queue wakeup accesses (Count)
system.cpu.vecInstQueueReads                        0                       # Number of vector instruction queue reads (Count)
system.cpu.vecInstQueueWrites                       0                       # Number of vector instruction queue writes (Count)
system.cpu.vecInstQueueWakeupAccesses               0                       # Number of vector instruction queue wakeup accesses (Count)
system.cpu.intAluAccesses                    21754795                       # Number of integer alu accesses (Count)
system.cpu.fpAluAccesses                      1562990                       # Number of floating point alu accesses (Count)
system.cpu.vecAluAccesses                           0                       # Number of vector alu accesses (Count)
system.cpu.numRecvResp                        3411004                       # Number of received responses (Count)
system.cpu.numRecvRespBytes                  21021921                       # Number of received response bytes (Byte)
system.cpu.recvRespAvgBW                         3.25                       # Average bandwidth of received responses ((Byte/Cycle))
system.cpu.recvRespAvgSize                       6.16                       # Average packet size per received response ((Byte/Count))
system.cpu.recvRespAvgRate                       0.53                       # Average rate of received responses per cycle ((Count/Cycle))
system.cpu.recvRespAvgRetryRate                  0.00                       # Average retry rate per received response ((Count/Count))
system.cpu.numSendRetryResp                         0                       # Number of retry responses sent (Count)
system.cpu.numSquashedInsts                     26186                       # Number of squashed instructions skipped in execute (Count)
system.cpu.numSwp                                   0                       # Number of swp insts executed (Count)
system.cpu.timesIdled                             874                       # Number of times that the entire CPU went into an idle state and unscheduled itself (Count)
system.cpu.idleCycles                          168185                       # Total number of cycles that the CPU has spent unscheduled due to idling (Cycle)
system.cpu.MemDepUnit__0.insertedLoads        2306761                       # Number of loads inserted to the mem dependence unit. (Count)
system.cpu.MemDepUnit__0.insertedStores       1427784                       # Number of stores inserted to the mem dependence unit. (Count)
system.cpu.MemDepUnit__0.conflictingLoads        19801                       # Number of conflicting loads. (Count)
system.cpu.MemDepUnit__0.conflictingStores         2307                       # Number of conflicting stores. (Count)
system.cpu.MemDepUnit__1.insertedLoads              0                       # Number of loads inserted to the mem dependence unit. (Count)
system.cpu.MemDepUnit__1.insertedStores             0                       # Number of stores inserted to the mem dependence unit. (Count)
system.cpu.MemDepUnit__1.conflictingLoads            0                       # Number of conflicting loads. (Count)
system.cpu.MemDepUnit__1.conflictingStores            0                       # Number of conflicting stores. (Count)
system.cpu.MemDepUnit__2.insertedLoads              0                       # Number of loads inserted to the mem dependence unit. (Count)
system.cpu.MemDepUnit__2.insertedStores             0                       # Number of stores inserted to the mem dependence unit. (Count)
system.cpu.MemDepUnit__2.conflictingLoads            0                       # Number of conflicting loads. (Count)
system.cpu.MemDepUnit__2.conflictingStores            0                       # Number of conflicting stores. (Count)
system.cpu.MemDepUnit__3.insertedLoads              0                       # Number of loads inserted to the mem dependence unit. (Count)
system.cpu.MemDepUnit__3.insertedStores             0                       # Number of stores inserted to the mem dependence unit. (Count)
system.cpu.MemDepUnit__3.conflictingLoads            0                       # Number of conflicting loads. (Count)
system.cpu.MemDepUnit__3.conflictingStores            0                       # Number of conflicting stores. (Count)
system.cpu.bac.fetchTargets                         0                       # Number of fetch targets created  (Count)
system.cpu.bac.branches                       2648527                       # Number of branches that BAC encountered (Count)
system.cpu.bac.predTakenBranches              1425134                       # Number of branches that BAC predicted taken. (Count)
system.cpu.bac.branchesNotLastuOp                   0                       # Number of branches that fetch encountered which are not the last uOp within a macrooperation. Jump to itself. (Count)
system.cpu.bac.branchMisspredict                13722                       # Number of mispredicted branches (Count)
system.cpu.bac.noBranchMisspredict               9394                       # Number of non-branch instructions mispredicted (Count)
system.cpu.bac.squashBranchDecode                 705                       # Number of branches squashed from decode (Count)
system.cpu.bac.squashBranchCommit               13017                       # Number of branches squashed from commit (Count)
system.cpu.bac.preDecUpdate::NoBranch               0                       # Number of branches extracted from the predecoder (Count)
system.cpu.bac.preDecUpdate::Return                 0                       # Number of branches extracted from the predecoder (Count)
system.cpu.bac.preDecUpdate::CallDirect             0                       # Number of branches extracted from the predecoder (Count)
system.cpu.bac.preDecUpdate::CallIndirect            0                       # Number of branches extracted from the predecoder (Count)
system.cpu.bac.preDecUpdate::DirectCond             0                       # Number of branches extracted from the predecoder (Count)
system.cpu.bac.preDecUpdate::DirectUncond            0                       # Number of branches extracted from the predecoder (Count)
system.cpu.bac.preDecUpdate::IndirectCond            0                       # Number of branches extracted from the predecoder (Count)
system.cpu.bac.preDecUpdate::IndirectUncond            0                       # Number of branches extracted from the predecoder (Count)
system.cpu.bac.preDecUpdate::total                  0                       # Number of branches extracted from the predecoder (Count)
system.cpu.bac.noHistByType::NoBranch               0                       # Number and type of branches that were undetected by the BPU. (Count)
system.cpu.bac.noHistByType::Return                 0                       # Number and type of branches that were undetected by the BPU. (Count)
system.cpu.bac.noHistByType::CallDirect             0                       # Number and type of branches that were undetected by the BPU. (Count)
system.cpu.bac.noHistByType::CallIndirect            0                       # Number and type of branches that were undetected by the BPU. (Count)
system.cpu.bac.noHistByType::DirectCond             0                       # Number and type of branches that were undetected by the BPU. (Count)
system.cpu.bac.noHistByType::DirectUncond            0                       # Number and type of branches that were undetected by the BPU. (Count)
system.cpu.bac.noHistByType::IndirectCond            0                       # Number and type of branches that were undetected by the BPU. (Count)
system.cpu.bac.noHistByType::IndirectUncond            0                       # Number and type of branches that were undetected by the BPU. (Count)
system.cpu.bac.noHistByType::total                  0                       # Number and type of branches that were undetected by the BPU. (Count)
system.cpu.bac.typeMissmatch                        0                       # Number branches where the branch type miss match (Count)
system.cpu.bac.multiBranchInst                      0                       # Number branches because its not the last branch. (Count)
system.cpu.bac.ftSizeDist::samples                  0                       # Number of bytes per fetch target (Count)
system.cpu.bac.ftSizeDist::mean                   nan                       # Number of bytes per fetch target (Count)
system.cpu.bac.ftSizeDist::stdev                  nan                       # Number of bytes per fetch target (Count)
system.cpu.bac.ftSizeDist::underflows               0                       # Number of bytes per fetch target (Count)
system.cpu.bac.ftSizeDist::0-3                      0                       # Number of bytes per fetch target (Count)
system.cpu.bac.ftSizeDist::4-7                      0                       # Number of bytes per fetch target (Count)
system.cpu.bac.ftSizeDist::8-11                     0                       # Number of bytes per fetch target (Count)
system.cpu.bac.ftSizeDist::12-15                    0                       # Number of bytes per fetch target (Count)
system.cpu.bac.ftSizeDist::16-19                    0                       # Number of bytes per fetch target (Count)
system.cpu.bac.ftSizeDist::20-23                    0                       # Number of bytes per fetch target (Count)
system.cpu.bac.ftSizeDist::24-27                    0                       # Number of bytes per fetch target (Count)
system.cpu.bac.ftSizeDist::28-31                    0                       # Number of bytes per fetch target (Count)
system.cpu.bac.ftSizeDist::32                       0                       # Number of bytes per fetch target (Count)
system.cpu.bac.ftSizeDist::overflows                0                       # Number of bytes per fetch target (Count)
system.cpu.bac.ftSizeDist::min_value                0                       # Number of bytes per fetch target (Count)
system.cpu.bac.ftSizeDist::max_value                0                       # Number of bytes per fetch target (Count)
system.cpu.bac.ftSizeDist::total                    0                       # Number of bytes per fetch target (Count)
system.cpu.bac.ftNumber::samples                    0                       # Number of fetch target inserted to the FTQ per cycle (Count)
system.cpu.bac.ftNumber::mean                     nan                       # Number of fetch target inserted to the FTQ per cycle (Count)
system.cpu.bac.ftNumber::stdev                    nan                       # Number of fetch target inserted to the FTQ per cycle (Count)
system.cpu.bac.ftNumber::underflows                 0                       # Number of fetch target inserted to the FTQ per cycle (Count)
system.cpu.bac.ftNumber::0                          0                       # Number of fetch target inserted to the FTQ per cycle (Count)
system.cpu.bac.ftNumber::1                          0                       # Number of fetch target inserted to the FTQ per cycle (Count)
system.cpu.bac.ftNumber::2                          0                       # Number of fetch target inserted to the FTQ per cycle (Count)
system.cpu.bac.ftNumber::3                          0                       # Number of fetch target inserted to the FTQ per cycle (Count)
system.cpu.bac.ftNumber::4                          0                       # Number of fetch target inserted to the FTQ per cycle (Count)
system.cpu.bac.ftNumber::overflows                  0                       # Number of fetch target inserted to the FTQ per cycle (Count)
system.cpu.bac.ftNumber::min_value                  0                       # Number of fetch target inserted to the FTQ per cycle (Count)
system.cpu.bac.ftNumber::max_value                  0                       # Number of fetch target inserted to the FTQ per cycle (Count)
system.cpu.bac.ftNumber::total                      0                       # Number of fetch target inserted to the FTQ per cycle (Count)
system.cpu.branchPred.lookups_0::NoBranch         1679      0.06%      0.06% # Number of BP lookups (Count)
system.cpu.branchPred.lookups_0::Return        223455      8.44%      8.50% # Number of BP lookups (Count)
system.cpu.branchPred.lookups_0::CallDirect       207061      7.82%     16.32% # Number of BP lookups (Count)
system.cpu.branchPred.lookups_0::CallIndirect          189      0.01%     16.33% # Number of BP lookups (Count)
system.cpu.branchPred.lookups_0::DirectCond      1893746     71.50%     87.83% # Number of BP lookups (Count)
system.cpu.branchPred.lookups_0::DirectUncond       165483      6.25%     94.08% # Number of BP lookups (Count)
system.cpu.branchPred.lookups_0::IndirectCond            0      0.00%     94.08% # Number of BP lookups (Count)
system.cpu.branchPred.lookups_0::IndirectUncond       156914      5.92%    100.00% # Number of BP lookups (Count)
system.cpu.branchPred.lookups_0::total        2648527                       # Number of BP lookups (Count)
system.cpu.branchPred.squashes_0::NoBranch         1628      1.69%      1.69% # Number of branches that got squashed (completely removed) as an earlier branch was mispredicted. (Count)
system.cpu.branchPred.squashes_0::Return        17575     18.22%     19.91% # Number of branches that got squashed (completely removed) as an earlier branch was mispredicted. (Count)
system.cpu.branchPred.squashes_0::CallDirect         1283      1.33%     21.24% # Number of branches that got squashed (completely removed) as an earlier branch was mispredicted. (Count)
system.cpu.branchPred.squashes_0::CallIndirect           82      0.09%     21.32% # Number of branches that got squashed (completely removed) as an earlier branch was mispredicted. (Count)
system.cpu.branchPred.squashes_0::DirectCond        73827     76.54%     97.87% # Number of branches that got squashed (completely removed) as an earlier branch was mispredicted. (Count)
system.cpu.branchPred.squashes_0::DirectUncond         1127      1.17%     99.04% # Number of branches that got squashed (completely removed) as an earlier branch was mispredicted. (Count)
system.cpu.branchPred.squashes_0::IndirectCond            0      0.00%     99.04% # Number of branches that got squashed (completely removed) as an earlier branch was mispredicted. (Count)
system.cpu.branchPred.squashes_0::IndirectUncond          930      0.96%    100.00% # Number of branches that got squashed (completely removed) as an earlier branch was mispredicted. (Count)
system.cpu.branchPred.squashes_0::total         96452                       # Number of branches that got squashed (completely removed) as an earlier branch was mispredicted. (Count)
system.cpu.branchPred.corrected_0::NoBranch          130      0.95%      0.95% # Number of branches that got corrected but not yet commited. Branches get corrected by decode or after execute. Also a branch misprediction can be detected out-of-order. Therefore, a corrected branch might not end up beeing committed in case an even earlier branch was mispredicted (Count)
system.cpu.branchPred.corrected_0::Return            3      0.02%      0.97% # Number of branches that got corrected but not yet commited. Branches get corrected by decode or after execute. Also a branch misprediction can be detected out-of-order. Therefore, a corrected branch might not end up beeing committed in case an even earlier branch was mispredicted (Count)
system.cpu.branchPred.corrected_0::CallDirect          377      2.75%      3.72% # Number of branches that got corrected but not yet commited. Branches get corrected by decode or after execute. Also a branch misprediction can be detected out-of-order. Therefore, a corrected branch might not end up beeing committed in case an even earlier branch was mispredicted (Count)
system.cpu.branchPred.corrected_0::CallIndirect          107      0.78%      4.50% # Number of branches that got corrected but not yet commited. Branches get corrected by decode or after execute. Also a branch misprediction can be detected out-of-order. Therefore, a corrected branch might not end up beeing committed in case an even earlier branch was mispredicted (Count)
system.cpu.branchPred.corrected_0::DirectCond        12568     91.59%     96.09% # Number of branches that got corrected but not yet commited. Branches get corrected by decode or after execute. Also a branch misprediction can be detected out-of-order. Therefore, a corrected branch might not end up beeing committed in case an even earlier branch was mispredicted (Count)
system.cpu.branchPred.corrected_0::DirectUncond          295      2.15%     98.24% # Number of branches that got corrected but not yet commited. Branches get corrected by decode or after execute. Also a branch misprediction can be detected out-of-order. Therefore, a corrected branch might not end up beeing committed in case an even earlier branch was mispredicted (Count)
system.cpu.branchPred.corrected_0::IndirectCond            0      0.00%     98.24% # Number of branches that got corrected but not yet commited. Branches get corrected by decode or after execute. Also a branch misprediction can be detected out-of-order. Therefore, a corrected branch might not end up beeing committed in case an even earlier branch was mispredicted (Count)
system.cpu.branchPred.corrected_0::IndirectUncond          242      1.76%    100.00% # Number of branches that got corrected but not yet commited. Branches get corrected by decode or after execute. Also a branch misprediction can be detected out-of-order. Therefore, a corrected branch might not end up beeing committed in case an even earlier branch was mispredicted (Count)
system.cpu.branchPred.corrected_0::total        13722                       # Number of branches that got corrected but not yet commited. Branches get corrected by decode or after execute. Also a branch misprediction can be detected out-of-order. Therefore, a corrected branch might not end up beeing committed in case an even earlier branch was mispredicted (Count)
system.cpu.branchPred.earlyResteers_0::NoBranch            0      0.00%      0.00% # Number of branches that got redirected after decode. (Count)
system.cpu.branchPred.earlyResteers_0::Return            0      0.00%      0.00% # Number of branches that got redirected after decode. (Count)
system.cpu.branchPred.earlyResteers_0::CallDirect          377     53.48%     53.48% # Number of branches that got redirected after decode. (Count)
system.cpu.branchPred.earlyResteers_0::CallIndirect            0      0.00%     53.48% # Number of branches that got redirected after decode. (Count)
system.cpu.branchPred.earlyResteers_0::DirectCond           33      4.68%     58.16% # Number of branches that got redirected after decode. (Count)
system.cpu.branchPred.earlyResteers_0::DirectUncond          295     41.84%    100.00% # Number of branches that got redirected after decode. (Count)
system.cpu.branchPred.earlyResteers_0::IndirectCond            0      0.00%    100.00% # Number of branches that got redirected after decode. (Count)
system.cpu.branchPred.earlyResteers_0::IndirectUncond            0      0.00%    100.00% # Number of branches that got redirected after decode. (Count)
system.cpu.branchPred.earlyResteers_0::total          705                       # Number of branches that got redirected after decode. (Count)
system.cpu.branchPred.committed_0::NoBranch           51      0.00%      0.00% # Number of branches finally committed  (Count)
system.cpu.branchPred.committed_0::Return       205880      8.07%      8.07% # Number of branches finally committed  (Count)
system.cpu.branchPred.committed_0::CallDirect       205778      8.06%     16.13% # Number of branches finally committed  (Count)
system.cpu.branchPred.committed_0::CallIndirect          107      0.00%     16.14% # Number of branches finally committed  (Count)
system.cpu.branchPred.committed_0::DirectCond      1819918     71.31%     87.45% # Number of branches finally committed  (Count)
system.cpu.branchPred.committed_0::DirectUncond       164356      6.44%     93.89% # Number of branches finally committed  (Count)
system.cpu.branchPred.committed_0::IndirectCond            0      0.00%     93.89% # Number of branches finally committed  (Count)
system.cpu.branchPred.committed_0::IndirectUncond       155984      6.11%    100.00% # Number of branches finally committed  (Count)
system.cpu.branchPred.committed_0::total      2552074                       # Number of branches finally committed  (Count)
system.cpu.branchPred.mispredicted_0::NoBranch           51      1.09%      1.09% # Number of committed branches that were mispredicted. (Count)
system.cpu.branchPred.mispredicted_0::Return            0      0.00%      1.09% # Number of committed branches that were mispredicted. (Count)
system.cpu.branchPred.mispredicted_0::CallDirect          195      4.15%      5.24% # Number of committed branches that were mispredicted. (Count)
system.cpu.branchPred.mispredicted_0::CallIndirect          103      2.19%      7.43% # Number of committed branches that were mispredicted. (Count)
system.cpu.branchPred.mispredicted_0::DirectCond         3991     84.95%     92.38% # Number of committed branches that were mispredicted. (Count)
system.cpu.branchPred.mispredicted_0::DirectUncond          147      3.13%     95.51% # Number of committed branches that were mispredicted. (Count)
system.cpu.branchPred.mispredicted_0::IndirectCond            0      0.00%     95.51% # Number of committed branches that were mispredicted. (Count)
system.cpu.branchPred.mispredicted_0::IndirectUncond          211      4.49%    100.00% # Number of committed branches that were mispredicted. (Count)
system.cpu.branchPred.mispredicted_0::total         4698                       # Number of committed branches that were mispredicted. (Count)
system.cpu.branchPred.mispredictDueToPredictor_0::NoBranch           51      1.54%      1.54% # Number of committed branches that were mispredicted by the predictor. (Count)
system.cpu.branchPred.mispredictDueToPredictor_0::Return            0      0.00%      1.54% # Number of committed branches that were mispredicted by the predictor. (Count)
system.cpu.branchPred.mispredictDueToPredictor_0::CallDirect            0      0.00%      1.54% # Number of committed branches that were mispredicted by the predictor. (Count)
system.cpu.branchPred.mispredictDueToPredictor_0::CallIndirect            0      0.00%      1.54% # Number of committed branches that were mispredicted by the predictor. (Count)
system.cpu.branchPred.mispredictDueToPredictor_0::DirectCond         3264     98.46%    100.00% # Number of committed branches that were mispredicted by the predictor. (Count)
system.cpu.branchPred.mispredictDueToPredictor_0::DirectUncond            0      0.00%    100.00% # Number of committed branches that were mispredicted by the predictor. (Count)
system.cpu.branchPred.mispredictDueToPredictor_0::IndirectCond            0      0.00%    100.00% # Number of committed branches that were mispredicted by the predictor. (Count)
system.cpu.branchPred.mispredictDueToPredictor_0::IndirectUncond            0      0.00%    100.00% # Number of committed branches that were mispredicted by the predictor. (Count)
system.cpu.branchPred.mispredictDueToPredictor_0::total         3315                       # Number of committed branches that were mispredicted by the predictor. (Count)
system.cpu.branchPred.mispredictDueToBTBMiss_0::NoBranch            0      0.00%      0.00% # Number of committed branches that were mispredicted because of a BTB miss. (Count)
system.cpu.branchPred.mispredictDueToBTBMiss_0::Return            0      0.00%      0.00% # Number of committed branches that were mispredicted because of a BTB miss. (Count)
system.cpu.branchPred.mispredictDueToBTBMiss_0::CallDirect          195     14.10%     14.10% # Number of committed branches that were mispredicted because of a BTB miss. (Count)
system.cpu.branchPred.mispredictDueToBTBMiss_0::CallIndirect          103      7.45%     21.55% # Number of committed branches that were mispredicted because of a BTB miss. (Count)
system.cpu.branchPred.mispredictDueToBTBMiss_0::DirectCond          727     52.57%     74.11% # Number of committed branches that were mispredicted because of a BTB miss. (Count)
system.cpu.branchPred.mispredictDueToBTBMiss_0::DirectUncond          147     10.63%     84.74% # Number of committed branches that were mispredicted because of a BTB miss. (Count)
system.cpu.branchPred.mispredictDueToBTBMiss_0::IndirectCond            0      0.00%     84.74% # Number of committed branches that were mispredicted because of a BTB miss. (Count)
system.cpu.branchPred.mispredictDueToBTBMiss_0::IndirectUncond          211     15.26%    100.00% # Number of committed branches that were mispredicted because of a BTB miss. (Count)
system.cpu.branchPred.mispredictDueToBTBMiss_0::total         1383                       # Number of committed branches that were mispredicted because of a BTB miss. (Count)
system.cpu.branchPred.targetProvider_0::NoTarget      1223393     46.19%     46.19% # The component providing the target for taken branches (Count)
system.cpu.branchPred.targetProvider_0::BTB      1045822     39.49%     85.68% # The component providing the target for taken branches (Count)
system.cpu.branchPred.targetProvider_0::RAS       223455      8.44%     94.12% # The component providing the target for taken branches (Count)
system.cpu.branchPred.targetProvider_0::Indirect       155857      5.88%    100.00% # The component providing the target for taken branches (Count)
system.cpu.branchPred.targetProvider_0::total      2648527                       # The component providing the target for taken branches (Count)
system.cpu.branchPred.targetWrong_0::NoBranch        12339     92.38%     92.38% # Number of branches where the target was incorrect or not available at prediction time. (Count)
system.cpu.branchPred.targetWrong_0::Return          994      7.44%     99.82% # Number of branches where the target was incorrect or not available at prediction time. (Count)
system.cpu.branchPred.targetWrong_0::CallDirect            3      0.02%     99.84% # Number of branches where the target was incorrect or not available at prediction time. (Count)
system.cpu.branchPred.targetWrong_0::CallIndirect           21      0.16%    100.00% # Number of branches where the target was incorrect or not available at prediction time. (Count)
system.cpu.branchPred.targetWrong_0::DirectCond            0      0.00%    100.00% # Number of branches where the target was incorrect or not available at prediction time. (Count)
system.cpu.branchPred.targetWrong_0::DirectUncond            0      0.00%    100.00% # Number of branches where the target was incorrect or not available at prediction time. (Count)
system.cpu.branchPred.targetWrong_0::IndirectCond            0      0.00%    100.00% # Number of branches where the target was incorrect or not available at prediction time. (Count)
system.cpu.branchPred.targetWrong_0::IndirectUncond            0      0.00%    100.00% # Number of branches where the target was incorrect or not available at prediction time. (Count)
system.cpu.branchPred.targetWrong_0::total        13357                       # Number of branches where the target was incorrect or not available at prediction time. (Count)
system.cpu.branchPred.condPredicted           1893746                       # Number of conditional branches predicted (Count)
system.cpu.branchPred.condPredictedTaken       690862                       # Number of conditional branches predicted as taken (Count)
system.cpu.branchPred.condIncorrect              4698                       # Number of conditional branches incorrect (Count)
system.cpu.branchPred.predTakenBTBMiss            991                       # Number of branches predicted taken but missed in BTB (Count)
system.cpu.branchPred.BTBLookups              2648527                       # Number of BTB lookups (Count)
system.cpu.branchPred.BTBUpdates                12335                       # Number of BTB updates (Count)
system.cpu.branchPred.BTBHits                 1246627                       # Number of BTB hits (Count)
system.cpu.branchPred.BTBHitRatio            0.470687                       # BTB Hit Ratio (Ratio)
system.cpu.branchPred.BTBMispredicted            1578                       # Number BTB mispredictions. No target found or target wrong (Count)
system.cpu.branchPred.indirectLookups          157103                       # Number of indirect predictor lookups. (Count)
system.cpu.branchPred.indirectHits             155857                       # Number of indirect target hits. (Count)
system.cpu.branchPred.indirectMisses             1246                       # Number of indirect misses. (Count)
system.cpu.branchPred.indirectMispredicted            0                       # Number of mispredicted indirect branches. (Count)
system.cpu.branchPred.btb.lookups::NoBranch         1679      0.06%      0.06% # Number of BTB lookups (Count)
system.cpu.branchPred.btb.lookups::Return       223455      8.44%      8.50% # Number of BTB lookups (Count)
system.cpu.branchPred.btb.lookups::CallDirect       207061      7.82%     16.32% # Number of BTB lookups (Count)
system.cpu.branchPred.btb.lookups::CallIndirect          189      0.01%     16.33% # Number of BTB lookups (Count)
system.cpu.branchPred.btb.lookups::DirectCond      1893746     71.50%     87.83% # Number of BTB lookups (Count)
system.cpu.branchPred.btb.lookups::DirectUncond       165483      6.25%     94.08% # Number of BTB lookups (Count)
system.cpu.branchPred.btb.lookups::IndirectCond            0      0.00%     94.08% # Number of BTB lookups (Count)
system.cpu.branchPred.btb.lookups::IndirectUncond       156914      5.92%    100.00% # Number of BTB lookups (Count)
system.cpu.branchPred.btb.lookups::total      2648527                       # Number of BTB lookups (Count)
system.cpu.branchPred.btb.misses::NoBranch          242      0.02%      0.02% # Number of BTB misses (Count)
system.cpu.branchPred.btb.misses::Return       223455     15.94%     15.96% # Number of BTB misses (Count)
system.cpu.branchPred.btb.misses::CallDirect          572      0.04%     16.00% # Number of BTB misses (Count)
system.cpu.branchPred.btb.misses::CallIndirect          189      0.01%     16.01% # Number of BTB misses (Count)
system.cpu.branchPred.btb.misses::DirectCond      1003687     71.59%     87.61% # Number of BTB misses (Count)
system.cpu.branchPred.btb.misses::DirectUncond        16841      1.20%     88.81% # Number of BTB misses (Count)
system.cpu.branchPred.btb.misses::IndirectCond            0      0.00%     88.81% # Number of BTB misses (Count)
system.cpu.branchPred.btb.misses::IndirectUncond       156914     11.19%    100.00% # Number of BTB misses (Count)
system.cpu.branchPred.btb.misses::total       1401900                       # Number of BTB misses (Count)
system.cpu.branchPred.btb.updates::NoBranch          130      1.05%      1.05% # Number of BTB updates (Count)
system.cpu.branchPred.btb.updates::Return            0      0.00%      1.05% # Number of BTB updates (Count)
system.cpu.branchPred.btb.updates::CallDirect          377      3.06%      4.11% # Number of BTB updates (Count)
system.cpu.branchPred.btb.updates::CallIndirect            0      0.00%      4.11% # Number of BTB updates (Count)
system.cpu.branchPred.btb.updates::DirectCond        11533     93.50%     97.61% # Number of BTB updates (Count)
system.cpu.branchPred.btb.updates::DirectUncond          295      2.39%    100.00% # Number of BTB updates (Count)
system.cpu.branchPred.btb.updates::IndirectCond            0      0.00%    100.00% # Number of BTB updates (Count)
system.cpu.branchPred.btb.updates::IndirectUncond            0      0.00%    100.00% # Number of BTB updates (Count)
system.cpu.branchPred.btb.updates::total        12335                       # Number of BTB updates (Count)
system.cpu.branchPred.btb.mispredict::NoBranch          130      1.05%      1.05% # Number of BTB mispredictions. No target found or target wrong. (Count)
system.cpu.branchPred.btb.mispredict::Return            0      0.00%      1.05% # Number of BTB mispredictions. No target found or target wrong. (Count)
system.cpu.branchPred.btb.mispredict::CallDirect          377      3.06%      4.11% # Number of BTB mispredictions. No target found or target wrong. (Count)
system.cpu.branchPred.btb.mispredict::CallIndirect            0      0.00%      4.11% # Number of BTB mispredictions. No target found or target wrong. (Count)
system.cpu.branchPred.btb.mispredict::DirectCond        11533     93.50%     97.61% # Number of BTB mispredictions. No target found or target wrong. (Count)
system.cpu.branchPred.btb.mispredict::DirectUncond          295      2.39%    100.00% # Number of BTB mispredictions. No target found or target wrong. (Count)
system.cpu.branchPred.btb.mispredict::IndirectCond            0      0.00%    100.00% # Number of BTB mispredictions. No target found or target wrong. (Count)
system.cpu.branchPred.btb.mispredict::IndirectUncond            0      0.00%    100.00% # Number of BTB mispredictions. No target found or target wrong. (Count)
system.cpu.branchPred.btb.mispredict::total        12335                       # Number of BTB mispredictions. No target found or target wrong. (Count)
system.cpu.branchPred.btb.power_state.pwrStateResidencyTicks::UNDEFINED   1614773000                       # Cumulative time (in ticks) in various power states (Tick)
system.cpu.branchPred.indirectBranchPred.lookups       157103                       # Number of lookups (Count)
system.cpu.branchPred.indirectBranchPred.hits       155857                       # Number of hits of a tag (Count)
system.cpu.branchPred.indirectBranchPred.misses         1246                       # Number of misses (Count)
system.cpu.branchPred.indirectBranchPred.targetRecords          349                       # Number of targets that where recorded/installed in the cache (Count)
system.cpu.branchPred.indirectBranchPred.indirectRecords       157452                       # Number of indirect branches/calls recorded in the indirect hist (Count)
system.cpu.branchPred.indirectBranchPred.speculativeOverflows            5                       # Number of times more than the allowed capacity for speculative branches/calls where in flight and destroy the path history (Count)
system.cpu.branchPred.ras.pushes               224825                       # Number of times a PC was pushed onto the RAS (Count)
system.cpu.branchPred.ras.pops                 224820                       # Number of times a PC was poped from the RAS (Count)
system.cpu.branchPred.ras.squashes              18940                       # Number of times the stack operation was squashed due to wrong speculation. (Count)
system.cpu.branchPred.ras.used                 205880                       # Number of times the RAS is the provider (Count)
system.cpu.branchPred.ras.correct              205880                       # Number of times the RAS is the provider and the prediction is correct (Count)
system.cpu.branchPred.ras.incorrect                 0                       # Number of times the RAS is the provider and the prediction is wrong (Count)
system.cpu.commit.commitSquashedInsts          445147                       # The number of squashed insts skipped by commit (Count)
system.cpu.commit.commitNonSpecStalls              36                       # The number of times commit has been forced to stall to communicate backwards (Count)
system.cpu.commit.branchMispredicts             13942                       # The number of times a branch was mispredicted (Count)
system.cpu.commit.numCommittedDist::samples      6208241                       # Number of insts commited each cycle (Count)
system.cpu.commit.numCommittedDist::mean     3.708224                       # Number of insts commited each cycle (Count)
system.cpu.commit.numCommittedDist::stdev     3.073517                       # Number of insts commited each cycle (Count)
system.cpu.commit.numCommittedDist::underflows            0      0.00%      0.00% # Number of insts commited each cycle (Count)
system.cpu.commit.numCommittedDist::0         1145600     18.45%     18.45% # Number of insts commited each cycle (Count)
system.cpu.commit.numCommittedDist::1          765349     12.33%     30.78% # Number of insts commited each cycle (Count)
system.cpu.commit.numCommittedDist::2          853334     13.75%     44.53% # Number of insts commited each cycle (Count)
system.cpu.commit.numCommittedDist::3          998925     16.09%     60.62% # Number of insts commited each cycle (Count)
system.cpu.commit.numCommittedDist::4          268102      4.32%     64.93% # Number of insts commited each cycle (Count)
system.cpu.commit.numCommittedDist::5          160006      2.58%     67.51% # Number of insts commited each cycle (Count)
system.cpu.commit.numCommittedDist::6          149745      2.41%     69.92% # Number of insts commited each cycle (Count)
system.cpu.commit.numCommittedDist::7          155593      2.51%     72.43% # Number of insts commited each cycle (Count)
system.cpu.commit.numCommittedDist::8         1711587     27.57%    100.00% # Number of insts commited each cycle (Count)
system.cpu.commit.numCommittedDist::overflows            0      0.00%    100.00% # Number of insts commited each cycle (Count)
system.cpu.commit.numCommittedDist::min_value            0                       # Number of insts commited each cycle (Count)
system.cpu.commit.numCommittedDist::max_value            8                       # Number of insts commited each cycle (Count)
system.cpu.commit.numCommittedDist::total      6208241                       # Number of insts commited each cycle (Count)
system.cpu.commit.amos                              0                       # Number of atomic instructions committed (Count)
system.cpu.commit.membars                          24                       # Number of memory barriers committed (Count)
system.cpu.commit.committedInstType_0::No_OpClass       461207      2.00%      2.00% # Class of committed instruction (Count)
system.cpu.commit.committedInstType_0::IntAlu     17681986     76.81%     78.81% # Class of committed instruction (Count)
system.cpu.commit.committedInstType_0::IntMult       136837      0.59%     79.40% # Class of committed instruction (Count)
system.cpu.commit.committedInstType_0::IntDiv         1679      0.01%     79.41% # Class of committed instruction (Count)
system.cpu.commit.committedInstType_0::FloatAdd        42554      0.18%     79.60% # Class of committed instruction (Count)
system.cpu.commit.committedInstType_0::FloatCmp            0      0.00%     79.60% # Class of committed instruction (Count)
system.cpu.commit.committedInstType_0::FloatCvt            0      0.00%     79.60% # Class of committed instruction (Count)
system.cpu.commit.committedInstType_0::FloatMult            0      0.00%     79.60% # Class of committed instruction (Count)
system.cpu.commit.committedInstType_0::FloatMultAcc            0      0.00%     79.60% # Class of committed instruction (Count)
system.cpu.commit.committedInstType_0::FloatDiv            0      0.00%     79.60% # Class of committed instruction (Count)
system.cpu.commit.committedInstType_0::FloatMisc            0      0.00%     79.60% # Class of committed instruction (Count)
system.cpu.commit.committedInstType_0::FloatSqrt            0      0.00%     79.60% # Class of committed instruction (Count)
system.cpu.commit.committedInstType_0::SimdAdd        30746      0.13%     79.73% # Class of committed instruction (Count)
system.cpu.commit.committedInstType_0::SimdAddAcc            0      0.00%     79.73% # Class of committed instruction (Count)
system.cpu.commit.committedInstType_0::SimdAlu       276924      1.20%     80.93% # Class of committed instruction (Count)
system.cpu.commit.committedInstType_0::SimdCmp          384      0.00%     80.93% # Class of committed instruction (Count)
system.cpu.commit.committedInstType_0::SimdCvt       173488      0.75%     81.69% # Class of committed instruction (Count)
system.cpu.commit.committedInstType_0::SimdMisc       444472      1.93%     83.62% # Class of committed instruction (Count)
system.cpu.commit.committedInstType_0::SimdMult        68040      0.30%     83.91% # Class of committed instruction (Count)
system.cpu.commit.committedInstType_0::SimdMultAcc            0      0.00%     83.91% # Class of committed instruction (Count)
system.cpu.commit.committedInstType_0::SimdMatMultAcc            0      0.00%     83.91% # Class of committed instruction (Count)
system.cpu.commit.committedInstType_0::SimdShift        37341      0.16%     84.08% # Class of committed instruction (Count)
system.cpu.commit.committedInstType_0::SimdShiftAcc            0      0.00%     84.08% # Class of committed instruction (Count)
system.cpu.commit.committedInstType_0::SimdDiv            0      0.00%     84.08% # Class of committed instruction (Count)
system.cpu.commit.committedInstType_0::SimdSqrt            0      0.00%     84.08% # Class of committed instruction (Count)
system.cpu.commit.committedInstType_0::SimdFloatAdd            0      0.00%     84.08% # Class of committed instruction (Count)
system.cpu.commit.committedInstType_0::SimdFloatAlu            0      0.00%     84.08% # Class of committed instruction (Count)
system.cpu.commit.committedInstType_0::SimdFloatCmp            0      0.00%     84.08% # Class of committed instruction (Count)
system.cpu.commit.committedInstType_0::SimdFloatCvt            0      0.00%     84.08% # Class of committed instruction (Count)
system.cpu.commit.committedInstType_0::SimdFloatDiv            0      0.00%     84.08% # Class of committed instruction (Count)
system.cpu.commit.committedInstType_0::SimdFloatMisc            0      0.00%     84.08% # Class of committed instruction (Count)
system.cpu.commit.committedInstType_0::SimdFloatMult            0      0.00%     84.08% # Class of committed instruction (Count)
system.cpu.commit.committedInstType_0::SimdFloatMultAcc            0      0.00%     84.08% # Class of committed instruction (Count)
system.cpu.commit.committedInstType_0::SimdFloatMatMultAcc            0      0.00%     84.08% # Class of committed instruction (Count)
system.cpu.commit.committedInstType_0::SimdFloatSqrt            0      0.00%     84.08% # Class of committed instruction (Count)
system.cpu.commit.committedInstType_0::SimdReduceAdd            0      0.00%     84.08% # Class of committed instruction (Count)
system.cpu.commit.committedInstType_0::SimdReduceAlu            0      0.00%     84.08% # Class of committed instruction (Count)
system.cpu.commit.committedInstType_0::SimdReduceCmp            0      0.00%     84.08% # Class of committed instruction (Count)
system.cpu.commit.committedInstType_0::SimdFloatReduceAdd            0      0.00%     84.08% # Class of committed instruction (Count)
system.cpu.commit.committedInstType_0::SimdFloatReduceCmp            0      0.00%     84.08% # Class of committed instruction (Count)
system.cpu.commit.committedInstType_0::SimdAes            0      0.00%     84.08% # Class of committed instruction (Count)
system.cpu.commit.committedInstType_0::SimdAesMix            0      0.00%     84.08% # Class of committed instruction (Count)
system.cpu.commit.committedInstType_0::SimdSha1Hash            0      0.00%     84.08% # Class of committed instruction (Count)
system.cpu.commit.committedInstType_0::SimdSha1Hash2            0      0.00%     84.08% # Class of committed instruction (Count)
system.cpu.commit.committedInstType_0::SimdSha256Hash            0      0.00%     84.08% # Class of committed instruction (Count)
system.cpu.commit.committedInstType_0::SimdSha256Hash2            0      0.00%     84.08% # Class of committed instruction (Count)
system.cpu.commit.committedInstType_0::SimdShaSigma2            0      0.00%     84.08% # Class of committed instruction (Count)
system.cpu.commit.committedInstType_0::SimdShaSigma3            0      0.00%     84.08% # Class of committed instruction (Count)
system.cpu.commit.committedInstType_0::SimdPredAlu            0      0.00%     84.08% # Class of committed instruction (Count)
system.cpu.commit.committedInstType_0::Matrix            0      0.00%     84.08% # Class of committed instruction (Count)
system.cpu.commit.committedInstType_0::MatrixMov            0      0.00%     84.08% # Class of committed instruction (Count)
system.cpu.commit.committedInstType_0::MatrixOP            0      0.00%     84.08% # Class of committed instruction (Count)
system.cpu.commit.committedInstType_0::MemRead      2031984      8.83%     92.90% # Class of committed instruction (Count)
system.cpu.commit.committedInstType_0::MemWrite      1363096      5.92%     98.82% # Class of committed instruction (Count)
system.cpu.commit.committedInstType_0::FloatMemRead       215405      0.94%     99.76% # Class of committed instruction (Count)
system.cpu.commit.committedInstType_0::FloatMemWrite        55404      0.24%    100.00% # Class of committed instruction (Count)
system.cpu.commit.committedInstType_0::IprAccess            0      0.00%    100.00% # Class of committed instruction (Count)
system.cpu.commit.committedInstType_0::InstPrefetch            0      0.00%    100.00% # Class of committed instruction (Count)
system.cpu.commit.committedInstType_0::SimdUnitStrideLoad            0      0.00%    100.00% # Class of committed instruction (Count)
system.cpu.commit.committedInstType_0::SimdUnitStrideStore            0      0.00%    100.00% # Class of committed instruction (Count)
system.cpu.commit.committedInstType_0::SimdUnitStrideMaskLoad            0      0.00%    100.00% # Class of committed instruction (Count)
system.cpu.commit.committedInstType_0::SimdUnitStrideMaskStore            0      0.00%    100.00% # Class of committed instruction (Count)
system.cpu.commit.committedInstType_0::SimdStridedLoad            0      0.00%    100.00% # Class of committed instruction (Count)
system.cpu.commit.committedInstType_0::SimdStridedStore            0      0.00%    100.00% # Class of committed instruction (Count)
system.cpu.commit.committedInstType_0::SimdIndexedLoad            0      0.00%    100.00% # Class of committed instruction (Count)
system.cpu.commit.committedInstType_0::SimdIndexedStore            0      0.00%    100.00% # Class of committed instruction (Count)
system.cpu.commit.committedInstType_0::SimdWholeRegisterLoad            0      0.00%    100.00% # Class of committed instruction (Count)
system.cpu.commit.committedInstType_0::SimdWholeRegisterStore            0      0.00%    100.00% # Class of committed instruction (Count)
system.cpu.commit.committedInstType_0::SimdUnitStrideFaultOnlyFirstLoad            0      0.00%    100.00% # Class of committed instruction (Count)
system.cpu.commit.committedInstType_0::SimdUnitStrideSegmentedLoad            0      0.00%    100.00% # Class of committed instruction (Count)
system.cpu.commit.committedInstType_0::SimdUnitStrideSegmentedStore            0      0.00%    100.00% # Class of committed instruction (Count)
system.cpu.commit.committedInstType_0::SimdUnitStrideSegmentedFaultOnlyFirstLoad            0      0.00%    100.00% # Class of committed instruction (Count)
system.cpu.commit.committedInstType_0::SimdStrideSegmentedLoad            0      0.00%    100.00% # Class of committed instruction (Count)
system.cpu.commit.committedInstType_0::SimdStrideSegmentedStore            0      0.00%    100.00% # Class of committed instruction (Count)
system.cpu.commit.committedInstType_0::SimdExt            0      0.00%    100.00% # Class of committed instruction (Count)
system.cpu.commit.committedInstType_0::SimdFloatExt            0      0.00%    100.00% # Class of committed instruction (Count)
system.cpu.commit.committedInstType_0::SimdConfig            0      0.00%    100.00% # Class of committed instruction (Count)
system.cpu.commit.committedInstType_0::SimdBf16Cvt            0      0.00%    100.00% # Class of committed instruction (Count)
system.cpu.commit.committedInstType_0::SimdBf16DotProd            0      0.00%    100.00% # Class of committed instruction (Count)
system.cpu.commit.committedInstType_0::SimdBf16MatMultAcc            0      0.00%    100.00% # Class of committed instruction (Count)
system.cpu.commit.committedInstType_0::SimdBf16MultAcc            0      0.00%    100.00% # Class of committed instruction (Count)
system.cpu.commit.committedInstType_0::Bf16Cvt            0      0.00%    100.00% # Class of committed instruction (Count)
system.cpu.commit.committedInstType_0::total     23021547                       # Class of committed instruction (Count)
system.cpu.commit.commitEligibleSamples       1711587                       # number cycles where commit BW limit reached (Cycle)
system.cpu.commitStats0.numInsts             11462660                       # Number of instructions committed (thread level) (Count)
system.cpu.commitStats0.numOps               23021547                       # Number of ops (including micro ops) committed (thread level) (Count)
system.cpu.commitStats0.numInstsNotNOP       11462660                       # Number of instructions committed excluding NOPs or prefetches (Count)
system.cpu.commitStats0.numOpsNotNOP         23021547                       # Number of Ops (including micro ops) Simulated (Count)
system.cpu.commitStats0.numUserInsts         11462660                       # Numbrer of instructions committed in user mode (Count)
system.cpu.commitStats0.numUserOps           23021547                       # Number of ops committed in user mode (Count)
system.cpu.commitStats0.ratioUserInsts              1                       # Ratio of instructions committed in user mode (Ratio)
system.cpu.commitStats0.ratioUserOps                1                       # Ratio of ops committed in user mode (Ratio)
system.cpu.commitStats0.cpi                  0.563490                       # CPI: cycles per instruction (thread level) ((Cycle/Count))
system.cpu.commitStats0.ipc                  1.774655                       # IPC: instructions per cycle (thread level) ((Count/Cycle))
system.cpu.commitStats0.numMemRefs            3665889                       # Number of memory references committed (Count)
system.cpu.commitStats0.numFpInsts            1493645                       # Number of float instructions (Count)
system.cpu.commitStats0.numIntInsts          21430131                       # Number of integer instructions (Count)
system.cpu.commitStats0.numLoadInsts          2247389                       # Number of load instructions (Count)
system.cpu.commitStats0.numStoreInsts         1418500                       # Number of store instructions (Count)
system.cpu.commitStats0.numVecInsts                 0                       # Number of vector instructions (Count)
system.cpu.commitStats0.committedInstType::No_OpClass       461207      2.00%      2.00% # Class of committed instruction. (Count)
[...]
system.mem_ctrl.dram.bwRead::cpu.inst        21957266                       # Total read bandwidth from this memory ((Byte/Second))
system.mem_ctrl.dram.bwRead::cpu.data        35670648                       # Total read bandwidth from this memory ((Byte/Second))
system.mem_ctrl.dram.bwRead::l2cache.prefetcher    215094010                       # Total read bandwidth from this memory ((Byte/Second))
system.mem_ctrl.dram.bwRead::total          272721924                       # Total read bandwidth from this memory ((Byte/Second))
system.mem_ctrl.dram.bwInstRead::cpu.inst     21957266                       # Instruction read bandwidth from this memory ((Byte/Second))
system.mem_ctrl.dram.bwInstRead::total       21957266                       # Instruction read bandwidth from this memory ((Byte/Second))
system.mem_ctrl.dram.bwWrite::writebacks     20134099                       # Write bandwidth from this memory ((Byte/Second))
system.mem_ctrl.dram.bwWrite::total          20134099                       # Write bandwidth from this memory ((Byte/Second))
system.mem_ctrl.dram.bwTotal::writebacks     20134099                       # Total bandwidth to/from this memory ((Byte/Second))
system.mem_ctrl.dram.bwTotal::cpu.inst       21957266                       # Total bandwidth to/from this memory ((Byte/Second))
system.mem_ctrl.dram.bwTotal::cpu.data       35670648                       # Total bandwidth to/from this memory ((Byte/Second))
system.mem_ctrl.dram.bwTotal::l2cache.prefetcher    215094010                       # Total bandwidth to/from this memory ((Byte/Second))
system.mem_ctrl.dram.bwTotal::total         292856024                       # Total bandwidth to/from this memory ((Byte/Second))
system.mem_ctrl.dram.readBursts                 13748                       # Number of DRAM read bursts (Count)
system.mem_ctrl.dram.writeBursts                  995                       # Number of DRAM write bursts (Count)
system.mem_ctrl.dram.perBankRdBursts::0           880                       # Per bank write bursts (Count)
system.mem_ctrl.dram.perBankRdBursts::1           836                       # Per bank write bursts (Count)
system.mem_ctrl.dram.perBankRdBursts::2           816                       # Per bank write bursts (Count)
system.mem_ctrl.dram.perBankRdBursts::3           682                       # Per bank write bursts (Count)
system.mem_ctrl.dram.perBankRdBursts::4           938                       # Per bank write bursts (Count)
system.mem_ctrl.dram.perBankRdBursts::5          1026                       # Per bank write bursts (Count)
system.mem_ctrl.dram.perBankRdBursts::6           948                       # Per bank write bursts (Count)
system.mem_ctrl.dram.perBankRdBursts::7           900                       # Per bank write bursts (Count)
system.mem_ctrl.dram.perBankRdBursts::8           896                       # Per bank write bursts (Count)
system.mem_ctrl.dram.perBankRdBursts::9           860                       # Per bank write bursts (Count)
system.mem_ctrl.dram.perBankRdBursts::10          902                       # Per bank write bursts (Count)
system.mem_ctrl.dram.perBankRdBursts::11          918                       # Per bank write bursts (Count)
system.mem_ctrl.dram.perBankRdBursts::12          786                       # Per bank write bursts (Count)
system.mem_ctrl.dram.perBankRdBursts::13          842                       # Per bank write bursts (Count)
system.mem_ctrl.dram.perBankRdBursts::14          702                       # Per bank write bursts (Count)
system.mem_ctrl.dram.perBankRdBursts::15          816                       # Per bank write bursts (Count)
system.mem_ctrl.dram.perBankWrBursts::0            60                       # Per bank write bursts (Count)
system.mem_ctrl.dram.perBankWrBursts::1            60                       # Per bank write bursts (Count)
system.mem_ctrl.dram.perBankWrBursts::2            90                       # Per bank write bursts (Count)
system.mem_ctrl.dram.perBankWrBursts::3            40                       # Per bank write bursts (Count)
system.mem_ctrl.dram.perBankWrBursts::4           108                       # Per bank write bursts (Count)
system.mem_ctrl.dram.perBankWrBursts::5           110                       # Per bank write bursts (Count)
system.mem_ctrl.dram.perBankWrBursts::6            85                       # Per bank write bursts (Count)
system.mem_ctrl.dram.perBankWrBursts::7           116                       # Per bank write bursts (Count)
system.mem_ctrl.dram.perBankWrBursts::8            52                       # Per bank write bursts (Count)
system.mem_ctrl.dram.perBankWrBursts::9            86                       # Per bank write bursts (Count)
system.mem_ctrl.dram.perBankWrBursts::10           60                       # Per bank write bursts (Count)
system.mem_ctrl.dram.perBankWrBursts::11           54                       # Per bank write bursts (Count)
system.mem_ctrl.dram.perBankWrBursts::12            6                       # Per bank write bursts (Count)
system.mem_ctrl.dram.perBankWrBursts::13            4                       # Per bank write bursts (Count)
system.mem_ctrl.dram.perBankWrBursts::14           16                       # Per bank write bursts (Count)
system.mem_ctrl.dram.perBankWrBursts::15           48                       # Per bank write bursts (Count)
system.mem_ctrl.dram.totQLat                544544574                       # Total ticks spent queuing (Tick)
system.mem_ctrl.dram.totBusLat               27496000                       # Total ticks spent in databus transfers (Tick)
system.mem_ctrl.dram.totMemAccLat           819504574                       # Total ticks spent from burst creation until serviced by the DRAM (Tick)
system.mem_ctrl.dram.avgQLat                 39609.00                       # Average queueing delay per DRAM burst ((Tick/Count))
system.mem_ctrl.dram.avgBusLat                2000.00                       # Average bus latency per DRAM burst ((Tick/Count))
system.mem_ctrl.dram.avgMemAccLat            59609.00                       # Average memory access latency per DRAM burst ((Tick/Count))
system.mem_ctrl.dram.readRowHits                 8325                       # Number of row buffer hits during reads (Count)
system.mem_ctrl.dram.writeRowHits                 697                       # Number of row buffer hits during writes (Count)
system.mem_ctrl.dram.readRowHitRate             60.55                       # Row buffer hit rate for reads (Ratio)
system.mem_ctrl.dram.writeRowHitRate            70.05                       # Row buffer hit rate for writes (Ratio)
system.mem_ctrl.dram.bytesPerActivate::samples         5720                       # Bytes accessed per row activation (Byte)
system.mem_ctrl.dram.bytesPerActivate::mean    82.472727                       # Bytes accessed per row activation (Byte)
system.mem_ctrl.dram.bytesPerActivate::gmean    76.135274                       # Bytes accessed per row activation (Byte)
system.mem_ctrl.dram.bytesPerActivate::stdev    40.413949                       # Bytes accessed per row activation (Byte)
system.mem_ctrl.dram.bytesPerActivate::32-63           53      0.93%      0.93% # Bytes accessed per row activation (Byte)
system.mem_ctrl.dram.bytesPerActivate::64-95         4403     76.98%     77.90% # Bytes accessed per row activation (Byte)
system.mem_ctrl.dram.bytesPerActivate::96-127           34      0.59%     78.50% # Bytes accessed per row activation (Byte)
system.mem_ctrl.dram.bytesPerActivate::128-159          877     15.33%     93.83% # Bytes accessed per row activation (Byte)
system.mem_ctrl.dram.bytesPerActivate::160-191           13      0.23%     94.06% # Bytes accessed per row activation (Byte)
system.mem_ctrl.dram.bytesPerActivate::192-223          269      4.70%     98.76% # Bytes accessed per row activation (Byte)
system.mem_ctrl.dram.bytesPerActivate::224-255           14      0.24%     99.00% # Bytes accessed per row activation (Byte)
system.mem_ctrl.dram.bytesPerActivate::256-287           42      0.73%     99.74% # Bytes accessed per row activation (Byte)
system.mem_ctrl.dram.bytesPerActivate::288-319            1      0.02%     99.76% # Bytes accessed per row activation (Byte)
system.mem_ctrl.dram.bytesPerActivate::320-351            9      0.16%     99.91% # Bytes accessed per row activation (Byte)
system.mem_ctrl.dram.bytesPerActivate::352-383            1      0.02%     99.93% # Bytes accessed per row activation (Byte)
system.mem_ctrl.dram.bytesPerActivate::384-415            3      0.05%     99.98% # Bytes accessed per row activation (Byte)
system.mem_ctrl.dram.bytesPerActivate::448-479            1      0.02%    100.00% # Bytes accessed per row activation (Byte)
system.mem_ctrl.dram.bytesPerActivate::total         5720                       # Bytes accessed per row activation (Byte)
system.mem_ctrl.dram.dramBytesRead             439936                       # Total bytes read (Byte)
system.mem_ctrl.dram.dramBytesWritten           31840                       # Total bytes written (Byte)
system.mem_ctrl.dram.avgRdBW               272.444486                       # Average DRAM read bandwidth in MiBytes/s ((Byte/Second))
system.mem_ctrl.dram.avgWrBW                19.717942                       # Average DRAM write bandwidth in MiBytes/s ((Byte/Second))
system.mem_ctrl.dram.peakBW                  16000.00                       # Theoretical peak bandwidth in MiByte/s ((Byte/Second))
system.mem_ctrl.dram.busUtil                     1.83                       # Data bus utilization in percentage (Ratio)
system.mem_ctrl.dram.busUtilRead                 1.70                       # Data bus utilization in percentage for reads (Ratio)
system.mem_ctrl.dram.busUtilWrite                0.12                       # Data bus utilization in percentage for writes (Ratio)
system.mem_ctrl.dram.pageHitRate                61.20                       # Row buffer hit rate, read and write combined (Ratio)
system.mem_ctrl.dram.power_state.pwrStateResidencyTicks::UNDEFINED   1614773000                       # Cumulative time (in ticks) in various power states (Tick)
system.mem_ctrl.dram.rank0.actEnergy                0                       # Energy for activate commands per rank (pJ) (Joule)
system.mem_ctrl.dram.rank0.preEnergy                0                       # Energy for precharge commands per rank (pJ) (Joule)
system.mem_ctrl.dram.rank0.readEnergy               0                       # Energy for read commands per rank (pJ) (Joule)
system.mem_ctrl.dram.rank0.writeEnergy              0                       # Energy for write commands per rank (pJ) (Joule)
system.mem_ctrl.dram.rank0.refreshEnergy            0                       # Energy for refresh commands per rank (pJ) (Joule)
system.mem_ctrl.dram.rank0.actBackEnergy            0                       # Energy for active background per rank (pJ) (Joule)
system.mem_ctrl.dram.rank0.preBackEnergy            0                       # Energy for precharge background per rank (pJ) (Joule)
system.mem_ctrl.dram.rank0.actPowerDownEnergy            0                       # Energy for active power-down per rank (pJ) (Joule)
system.mem_ctrl.dram.rank0.prePowerDownEnergy            0                       # Energy for precharge power-down per rank (pJ) (Joule)
system.mem_ctrl.dram.rank0.selfRefreshEnergy            0                       # Energy for self refresh per rank (pJ) (Joule)
system.mem_ctrl.dram.rank0.totalEnergy              0                       # Total energy per rank (pJ) (Joule)
system.mem_ctrl.dram.rank0.averagePower             0                       # Core power per rank (mW) (Watt)
system.mem_ctrl.dram.rank0.totalIdleTime            0                       # Total Idle time Per DRAM Rank (Tick)
system.mem_ctrl.dram.rank0.pwrStateTime::IDLE   1283087590                       # Time in different power states (Tick)
system.mem_ctrl.dram.rank0.pwrStateTime::REF     91300000                       # Time in different power states (Tick)
system.mem_ctrl.dram.rank0.pwrStateTime::SREF            0                       # Time in different power states (Tick)
system.mem_ctrl.dram.rank0.pwrStateTime::PRE_PDN            0                       # Time in different power states (Tick)
system.mem_ctrl.dram.rank0.pwrStateTime::ACT    240385410                       # Time in different power states (Tick)
system.mem_ctrl.dram.rank0.pwrStateTime::ACT_PDN            0                       # Time in different power states (Tick)
system.mem_ctrl.power_state.pwrStateResidencyTicks::UNDEFINED   1614773000                       # Cumulative time (in ticks) in various power states (Tick)
system.membus.transDist::ReadResp                6697                       # Transaction distribution (Count)
system.membus.transDist::WritebackDirty           508                       # Transaction distribution (Count)
system.membus.transDist::CleanEvict              2091                       # Transaction distribution (Count)
system.membus.transDist::ReadExReq                184                       # Transaction distribution (Count)
system.membus.transDist::ReadExResp               184                       # Transaction distribution (Count)
system.membus.transDist::ReadSharedReq           6697                       # Transaction distribution (Count)
system.membus.pktCount_system.l2cache.mem_side_port::system.mem_ctrl.port        16361                       # Packet count per connected requestor and responder (Count)
system.membus.pktCount_system.l2cache.mem_side_port::total        16361                       # Packet count per connected requestor and responder (Count)
system.membus.pktCount::total                   16361                       # Packet count per connected requestor and responder (Count)
system.membus.pktSize_system.l2cache.mem_side_port::system.mem_ctrl.port       472896                       # Cumulative packet size per connected requestor and responder (Byte)
system.membus.pktSize_system.l2cache.mem_side_port::total       472896                       # Cumulative packet size per connected requestor and responder (Byte)
system.membus.pktSize::total                   472896                       # Cumulative packet size per connected requestor and responder (Byte)
system.membus.snoops                                0                       # Total snoops (Count)
system.membus.snoopTraffic                          0                       # Total snoop traffic (Byte)
system.membus.snoopFanout::samples               6881                       # Request fanout histogram (Count)
system.membus.snoopFanout::mean                     0                       # Request fanout histogram (Count)
system.membus.snoopFanout::stdev                    0                       # Request fanout histogram (Count)
system.membus.snoopFanout::underflows               0      0.00%      0.00% # Request fanout histogram (Count)
system.membus.snoopFanout::0                     6881    100.00%    100.00% # Request fanout histogram (Count)
system.membus.snoopFanout::1                        0      0.00%    100.00% # Request fanout histogram (Count)
system.membus.snoopFanout::overflows                0      0.00%    100.00% # Request fanout histogram (Count)
system.membus.snoopFanout::min_value                0                       # Request fanout histogram (Count)
system.membus.snoopFanout::max_value                0                       # Request fanout histogram (Count)
system.membus.snoopFanout::total                 6881                       # Request fanout histogram (Count)
system.membus.power_state.pwrStateResidencyTicks::UNDEFINED   1614773000                       # Cumulative time (in ticks) in various power states (Tick)
system.membus.reqLayer0.occupancy             3441716                       # Layer occupancy (ticks) (Tick)
system.membus.reqLayer0.utilization               0.0                       # Layer utilization (Ratio)
system.membus.respLayer0.occupancy            8790713                       # Layer occupancy (ticks) (Tick)
system.membus.respLayer0.utilization              0.0                       # Layer utilization (Ratio)
system.membus.snoop_filter.totRequests           9480                       # Total number of requests made to the snoop filter. (Count)
system.membus.snoop_filter.hitSingleRequests         2599                       # Number of requests hitting in the snoop filter with a single holder of the requested data. (Count)
system.membus.snoop_filter.hitMultiRequests            0                       # Number of requests hitting in the snoop filter with multiple (>1) holders of the requested data. (Count)
system.membus.snoop_filter.totSnoops                0                       # Total number of snoops made to the snoop filter. (Count)
system.membus.snoop_filter.hitSingleSnoops            0                       # Number of snoops hitting in the snoop filter with a single holder of the requested data. (Count)
system.membus.snoop_filter.hitMultiSnoops            0                       # Number of snoops hitting in the snoop filter with multiple (>1) holders of the requested data. (Count)
system.workload.inst.arm                            0                       # number of arm instructions executed (Count)
system.workload.inst.quiesce                        0                       # number of quiesce instructions executed (Count)
system.l2cache.prefetcher.actionUse_0             625                       # Number of epochs where RL selected bandit index 0 (Unspecified)
system.l2cache.prefetcher.actionUse_1               7                       # Number of epochs where RL selected bandit index 1 (Unspecified)
system.l2cache.prefetcher.actionUse_2             169                       # Number of epochs where RL selected bandit index 2 (Unspecified)
system.l2cache.prefetcher.actionUse_3               6                       # Number of epochs where RL selected bandit index 3 (OFF) (Unspecified)
system.l2cache.prefetcher.children0.pfIssued         1816                       # Prefetches issued (attributed) to child 0 (Unspecified)
system.l2cache.prefetcher.children0.pfRedundant            9                       # Redundant prefetch candidates (already tracked) for child 0 (Unspecified)
system.l2cache.prefetcher.children0.pfUseful          999                       # Useful prefetches (demand hit prefetched line) for child 0 (Unspecified)
system.l2cache.prefetcher.children1.pfIssued           27                       # Prefetches issued (attributed) to child 1 (Unspecified)
system.l2cache.prefetcher.children1.pfRedundant           33                       # Redundant prefetch candidates (already tracked) for child 1 (Unspecified)
system.l2cache.prefetcher.children1.pfUseful            7                       # Useful prefetches (demand hit prefetched line) for child 1 (Unspecified)
system.l2cache.prefetcher.children2.pfIssued         4224                       # Prefetches issued (attributed) to child 2 (Unspecified)
system.l2cache.prefetcher.children2.pfRedundant         2810                       # Redundant prefetch candidates (already tracked) for child 2 (Unspecified)
system.l2cache.prefetcher.children2.pfUseful         1284                       # Useful prefetches (demand hit prefetched line) for child 2 (Unspecified)
system.l2cache.prefetcher.children3.pfIssued            0                       # Prefetches issued (attributed) to child 3 (Unspecified)
system.l2cache.prefetcher.children3.pfRedundant            0                       # Redundant prefetch candidates (already tracked) for child 3 (Unspecified)
system.l2cache.prefetcher.children3.pfUseful            0                       # Useful prefetches (demand hit prefetched line) for child 3 (Unspecified)

---------- End Simulation Statistics   ----------
