
---------- Begin Simulation Statistics ----------
simSeconds                                   0.001942                       # Number of seconds simulated (Second)
simTicks                                   1942431750                       # Number of ticks simulated (Tick)
finalTick                                  1942431750                       # Number of ticks from beginning of simulation (restored from checkpoints and never reset) (Tick)
simFreq                                  1000000000000                       # The number of ticks per simulated second ((Tick/Second))
hostSeconds                                    125.72                       # Real time elapsed on the host (Second)
hostTickRate                                 15449922                       # The number of ticks simulated per host second (ticks/s) ((Tick/Second))
hostMemory                                     805696                       # Number of bytes of host memory used (Byte)
simInsts                                     12745869                       # Number of instructions simulated (Count)
simOps                                       24597402                       # Number of ops (including micro ops) simulated (Count)
hostInstRate                                   101379                       # Simulator instruction rate (inst/s) ((Count/Second))
hostOpRate                                     195645                       # Simulator op (including micro ops) rate (op/s) ((Count/Second))
system.clk_domain.clock                           250                       # Clock period in ticks (Tick)
system.clk_domain.voltage_domain.voltage            1                       # Voltage in Volts (Volt)
system.cpu.numCycles                          7769728                       # Number of cpu cycles simulated (Cycle)
system.cpu.cpi                               0.609588                       # CPI: cycles per instruction (core level) ((Cycle/Count))
system.cpu.ipc                               1.640452                       # IPC: instructions per cycle (core level) ((Count/Cycle))
system.cpu.numWorkItemsStarted                      0                       # Number of work items this cpu started (Count)
system.cpu.numWorkItemsCompleted                    0                       # Number of work items this cpu completed (Count)
system.cpu.instsAdded                        26222940                       # Number of instructions added to the IQ (excludes non-spec) (Count)
system.cpu.nonSpecInstsAdded                       69                       # Number of non-speculative instructions added to the IQ (Count)
system.cpu.instsIssued                       25636327                       # Number of instructions issued (Count)
system.cpu.squashedInstsIssued                  14907                       # Number of squashed instructions issued (Count)
system.cpu.squashedInstsExamined              1625601                       # Number of squashed instructions iterated over during squash; mainly for profiling (Count)
system.cpu.squashedOperandsExamined           3290676                       # Number of squashed operands that are examined and possibly removed from graph (Count)
system.cpu.squashedNonSpecRemoved                  33                       # Number of squashed non-spec instructions that were removed (Count)
system.cpu.numIssuedDist::samples             7475227                       # Number of insts issued each cycle (Count)
system.cpu.numIssuedDist::mean               3.429505                       # Number of insts issued each cycle (Count)
system.cpu.numIssuedDist::stdev              2.303466                       # Number of insts issued each cycle (Count)
system.cpu.numIssuedDist::underflows                0      0.00%      0.00% # Number of insts issued each cycle (Count)
system.cpu.numIssuedDist::0                   1157382     15.48%     15.48% # Number of insts issued each cycle (Count)
system.cpu.numIssuedDist::1                    664991      8.90%     24.38% # Number of insts issued each cycle (Count)
system.cpu.numIssuedDist::2                    989250     13.23%     37.61% # Number of insts issued each cycle (Count)
system.cpu.numIssuedDist::3                    975842     13.05%     50.67% # Number of insts issued each cycle (Count)
system.cpu.numIssuedDist::4                   1049503     14.04%     64.71% # Number of insts issued each cycle (Count)
system.cpu.numIssuedDist::5                    792319     10.60%     75.31% # Number of insts issued each cycle (Count)
system.cpu.numIssuedDist::6                   1182816     15.82%     91.13% # Number of insts issued each cycle (Count)
system.cpu.numIssuedDist::7                    496185      6.64%     97.77% # Number of insts issued each cycle (Count)
system.cpu.numIssuedDist::8                    166939      2.23%    100.00% # Number of insts issued each cycle (Count)
system.cpu.numIssuedDist::overflows                 0      0.00%    100.00% # Number of insts issued each cycle (Count)
system.cpu.numIssuedDist::min_value                 0                       # Number of insts issued each cycle (Count)
system.cpu.numIssuedDist::max_value                 8                       # Number of insts issued each cycle (Count)
system.cpu.numIssuedDist::total               7475227                       # Number of insts issued each cycle (Count)
system.cpu.statFuBusy::No_OpClass                   0      0.00%      0.00% # attempts to use FU when none available (Count)
system.cpu.statFuBusy::IntAlu                  363375     84.99%     84.99% # attempts to use FU when none available (Count)
system.cpu.statFuBusy::IntMult                      0      0.00%     84.99% # attempts to use FU when none available (Count)
system.cpu.statFuBusy::IntDiv                       0      0.00%     84.99% # attempts to use FU when none available (Count)
system.cpu.statFuBusy::FloatAdd                     0      0.00%     84.99% # attempts to use FU when none available (Count)
system.cpu.statFuBusy::FloatCmp                     0      0.00%     84.99% # attempts to use FU when none available (Count)
system.cpu.statFuBusy::FloatCvt                     0      0.00%     84.99% # attempts to use FU when none available (Count)
system.cpu.statFuBusy::FloatMult                    0      0.00%     84.99% # attempts to use FU when none available (Count)
system.cpu.statFuBusy::FloatMultAcc                 0      0.00%     84.99% # attempts to use FU when none available (Count)
system.cpu.statFuBusy::FloatDiv                     0      0.00%     84.99% # attempts to use FU when none available (Count)
system.cpu.statFuBusy::FloatMisc                    0      0.00%     84.99% # attempts to use FU when none available (Count)
system.cpu.statFuBusy::FloatSqrt                    0      0.00%     84.99% # attempts to use FU when none available (Count)
system.cpu.statFuBusy::SimdAdd                      0      0.00%     84.99% # attempts to use FU when none available (Count)
system.cpu.statFuBusy::SimdAddAcc                   0      0.00%     84.99% # attempts to use FU when none available (Count)
system.cpu.statFuBusy::SimdAlu                  12390      2.90%     87.88% # attempts to use FU when none available (Count)
system.cpu.statFuBusy::SimdCmp                     20      0.00%     87.89% # attempts to use FU when none available (Count)
system.cpu.statFuBusy::SimdCvt                   8060      1.89%     89.77% # attempts to use FU when none available (Count)
system.cpu.statFuBusy::SimdMisc                  5335      1.25%     91.02% # attempts to use FU when none available (Count)
system.cpu.statFuBusy::SimdMult                     0      0.00%     91.02% # attempts to use FU when none available (Count)
system.cpu.statFuBusy::SimdMultAcc                  0      0.00%     91.02% # attempts to use FU when none available (Count)
system.cpu.statFuBusy::SimdMatMultAcc               0      0.00%     91.02% # attempts to use FU when none available (Count)
system.cpu.statFuBusy::SimdShift                   15      0.00%     91.02% # attempts to use FU when none available (Count)
system.cpu.statFuBusy::SimdShiftAcc                 0      0.00%     91.02% # attempts to use FU when none available (Count)
system.cpu.statFuBusy::SimdDiv                      0      0.00%     91.02% # attempts to use FU when none available (Count)
system.cpu.statFuBusy::SimdSqrt                     0      0.00%     91.02% # attempts to use FU when none available (Count)
system.cpu.statFuBusy::SimdFloatAdd                 2      0.00%     91.02% # attempts to use FU when none available (Count)
system.cpu.statFuBusy::SimdFloatAlu                 0      0.00%     91.02% # attempts to use FU when none available (Count)
system.cpu.statFuBusy::SimdFloatCmp                 0      0.00%     91.02% # attempts to use FU when none available (Count)
system.cpu.statFuBusy::SimdFloatCvt                 0      0.00%     91.02% # attempts to use FU when none available (Count)
system.cpu.statFuBusy::SimdFloatDiv                 0      0.00%     91.02% # attempts to use FU when none available (Count)
system.cpu.statFuBusy::SimdFloatMisc                0      0.00%     91.02% # attempts to use FU when none available (Count)
system.cpu.statFuBusy::SimdFloatMult                0      0.00%     91.02% # attempts to use FU when none available (Count)
system.cpu.statFuBusy::SimdFloatMultAcc             0      0.00%     91.02% # attempts to use FU when none available (Count)
system.cpu.statFuBusy::SimdFloatMatMultAcc            0      0.00%     91.02% # attempts to use FU when none available (Count)
system.cpu.statFuBusy::SimdFloatSqrt                0      0.00%     91.02% # attempts to use FU when none available (Count)
system.cpu.statFuBusy::SimdReduceAdd                0      0.00%     91.02% # attempts to use FU when none available (Count)
system.cpu.statFuBusy::SimdReduceAlu                0      0.00%     91.02% # attempts to use FU when none available (Count)
system.cpu.statFuBusy::SimdReduceCmp                0      0.00%     91.02% # attempts to use FU when none available (Count)
system.cpu.statFuBusy::SimdFloatReduceAdd            0      0.00%     91.02% # attempts to use FU when none available (Count)
system.cpu.statFuBusy::SimdFloatReduceCmp            0      0.00%     91.02% # attempts to use FU when none available (Count)
system.cpu.statFuBusy::SimdAes                      0      0.00%     91.02% # attempts to use FU when none available (Count)
system.cpu.statFuBusy::SimdAesMix                   0      0.00%     91.02% # attempts to use FU when none available (Count)
system.cpu.statFuBusy::SimdSha1Hash                 0      0.00%     91.02% # attempts to use FU when none available (Count)
system.cpu.statFuBusy::SimdSha1Hash2                0      0.00%     91.02% # attempts to use FU when none available (Count)
system.cpu.statFuBusy::SimdSha256Hash               0      0.00%     91.02% # attempts to use FU when none available (Count)
system.cpu.statFuBusy::SimdSha256Hash2              0      0.00%     91.02% # attempts to use FU when none available (Count)
system.cpu.statFuBusy::SimdShaSigma2                0      0.00%     91.02% # attempts to use FU when none available (Count)
system.cpu.statFuBusy::SimdShaSigma3                0      0.00%     91.02% # attempts to use FU when none available (Count)
system.cpu.statFuBusy::SimdPredAlu                  0      0.00%     91.02% # attempts to use FU when none available (Count)
system.cpu.statFuBusy::Matrix                       0      0.00%     91.02% # attempts to use FU when none available (Count)
system.cpu.statFuBusy::MatrixMov                    0      0.00%     91.02% # attempts to use FU when none available (Count)
system.cpu.statFuBusy::MatrixOP                     0      0.00%     91.02% # attempts to use FU when none available (Count)
system.cpu.statFuBusy::MemRead                  21857      5.11%     96.14% # attempts to use FU when none available (Count)
system.cpu.statFuBusy::MemWrite                  2853      0.67%     96.80% # attempts to use FU when none available (Count)
system.cpu.statFuBusy::FloatMemRead              5390      1.26%     98.06% # attempts to use FU when none available (Count)
system.cpu.statFuBusy::FloatMemWrite             8277      1.94%    100.00% # attempts to use FU when none available (Count)
system.cpu.statFuBusy::IprAccess                    0      0.00%    100.00% # attempts to use FU when none available (Count)
system.cpu.statFuBusy::InstPrefetch                 0      0.00%    100.00% # attempts to use FU when none available (Count)
system.cpu.statFuBusy::SimdUnitStrideLoad            0      0.00%    100.00% # attempts to use FU when none available (Count)
system.cpu.statFuBusy::SimdUnitStrideStore            0      0.00%    100.00% # attempts to use FU when none available (Count)
system.cpu.statFuBusy::SimdUnitStrideMaskLoad            0      0.00%    100.00% # attempts to use FU when none available (Count)
system.cpu.statFuBusy::SimdUnitStrideMaskStore            0      0.00%    100.00% # attempts to use FU when none available (Count)
system.cpu.statFuBusy::SimdStridedLoad              0      0.00%    100.00% # attempts to use FU when none available (Count)
system.cpu.statFuBusy::SimdStridedStore             0      0.00%    100.00% # attempts to use FU when none available (Count)
system.cpu.statFuBusy::SimdIndexedLoad              0      0.00%    100.00% # attempts to use FU when none available (Count)
system.cpu.statFuBusy::SimdIndexedStore             0      0.00%    100.00% # attempts to use FU when none available (Count)
system.cpu.statFuBusy::SimdWholeRegisterLoad            0      0.00%    100.00% # attempts to use FU when none available (Count)
system.cpu.statFuBusy::SimdWholeRegisterStore            0      0.00%    100.00% # attempts to use FU when none available (Count)
system.cpu.statFuBusy::SimdUnitStrideFaultOnlyFirstLoad            0      0.00%    100.00% # attempts to use FU when none available (Count)
system.cpu.statFuBusy::SimdUnitStrideSegmentedLoad            0      0.00%    100.00% # attempts to use FU when none available (Count)
system.cpu.statFuBusy::SimdUnitStrideSegmentedStore            0      0.00%    100.00% # attempts to use FU when none available (Count)
system.cpu.statFuBusy::SimdUnitStrideSegmentedFaultOnlyFirstLoad            0      0.00%    100.00% # attempts to use FU when none available (Count)
system.cpu.statFuBusy::SimdStrideSegmentedLoad            0      0.00%    100.00% # attempts to use FU when none available (Count)
system.cpu.statFuBusy::SimdStrideSegmentedStore            0      0.00%    100.00% # attempts to use FU when none available (Count)
system.cpu.statFuBusy::SimdExt                      0      0.00%    100.00% # attempts to use FU when none available (Count)
system.cpu.statFuBusy::SimdFloatExt                 0      0.00%    100.00% # attempts to use FU when none available (Count)
system.cpu.statFuBusy::SimdConfig                   0      0.00%    100.00% # attempts to use FU when none available (Count)
system.cpu.statFuBusy::SimdBf16Cvt                  0      0.00%    100.00% # attempts to use FU when none available (Count)
system.cpu.statFuBusy::SimdBf16DotProd              0      0.00%    100.00% # attempts to use FU when none available (Count)
system.cpu.statFuBusy::SimdBf16MatMultAcc            0      0.00%    100.00% # attempts to use FU when none available (Count)
system.cpu.statFuBusy::SimdBf16MultAcc              0      0.00%    100.00% # attempts to use FU when none available (Count)
system.cpu.statFuBusy::Bf16Cvt                      0      0.00%    100.00% # attempts to use FU when none available (Count)
system.cpu.issuedInstType_0::No_OpClass        316301      1.23%      1.23% # Number of instructions issued per FU type, per thread (Count)
system.cpu.issuedInstType_0::IntAlu          20332244     79.31%     80.54% # Number of instructions issued per FU type, per thread (Count)
system.cpu.issuedInstType_0::IntMult            43204      0.17%     80.71% # Number of instructions issued per FU type, per thread (Count)
system.cpu.issuedInstType_0::IntDiv            259414      1.01%     81.72% # Number of instructions issued per FU type, per thread (Count)
system.cpu.issuedInstType_0::FloatAdd           71429      0.28%     82.00% # Number of instructions issued per FU type, per thread (Count)
system.cpu.issuedInstType_0::FloatCmp               0      0.00%     82.00% # Number of instructions issued per FU type, per thread (Count)
system.cpu.issuedInstType_0::FloatCvt               0      0.00%     82.00% # Number of instructions issued per FU type, per thread (Count)
system.cpu.issuedInstType_0::FloatMult              0      0.00%     82.00% # Number of instructions issued per FU type, per thread (Count)
system.cpu.issuedInstType_0::FloatMultAcc            0      0.00%     82.00% # Number of instructions issued per FU type, per thread (Count)
system.cpu.issuedInstType_0::FloatDiv               0      0.00%     82.00% # Number of instructions issued per FU type, per thread (Count)
system.cpu.issuedInstType_0::FloatMisc              0      0.00%     82.00% # Number of instructions issued per FU type, per thread (Count)
system.cpu.issuedInstType_0::FloatSqrt              0      0.00%     82.00% # Number of instructions issued per FU type, per thread (Count)
system.cpu.issuedInstType_0::SimdAdd              661      0.00%     82.01% # Number of instructions issued per FU type, per thread (Count)
system.cpu.issuedInstType_0::SimdAddAcc             0      0.00%     82.01% # Number of instructions issued per FU type, per thread (Count)
system.cpu.issuedInstType_0::SimdAlu           172849      0.67%     82.68% # Number of instructions issued per FU type, per thread (Count)
system.cpu.issuedInstType_0::SimdCmp              536      0.00%     82.68% # Number of instructions issued per FU type, per thread (Count)
system.cpu.issuedInstType_0::SimdCvt           156131      0.61%     83.29% # Number of instructions issued per FU type, per thread (Count)
system.cpu.issuedInstType_0::SimdMisc          182283      0.71%     84.00% # Number of instructions issued per FU type, per thread (Count)
system.cpu.issuedInstType_0::SimdMult               0      0.00%     84.00% # Number of instructions issued per FU type, per thread (Count)
system.cpu.issuedInstType_0::SimdMultAcc            0      0.00%     84.00% # Number of instructions issued per FU type, per thread (Count)
system.cpu.issuedInstType_0::SimdMatMultAcc            0      0.00%     84.00% # Number of instructions issued per FU type, per thread (Count)
system.cpu.issuedInstType_0::SimdShift            646      0.00%     84.00% # Number of instructions issued per FU type, per thread (Count)
system.cpu.issuedInstType_0::SimdShiftAcc            0      0.00%     84.00% # Number of instructions issued per FU type, per thread (Count)
system.cpu.issuedInstType_0::SimdDiv                0      0.00%     84.00% # Number of instructions issued per FU type, per thread (Count)
system.cpu.issuedInstType_0::SimdSqrt               0      0.00%     84.00% # Number of instructions issued per FU type, per thread (Count)
system.cpu.issuedInstType_0::SimdFloatAdd        35850      0.14%     84.14% # Number of instructions issued per FU type, per thread (Count)
system.cpu.issuedInstType_0::SimdFloatAlu            0      0.00%     84.14% # Number of instructions issued per FU type, per thread (Count)
system.cpu.issuedInstType_0::SimdFloatCmp            0      0.00%     84.14% # Number of instructions issued per FU type, per thread (Count)
system.cpu.issuedInstType_0::SimdFloatCvt         8192      0.03%     84.18% # Number of instructions issued per FU type, per thread (Count)
system.cpu.issuedInstType_0::SimdFloatDiv            0      0.00%     84.18% # Number of instructions issued per FU type, per thread (Count)
system.cpu.issuedInstType_0::SimdFloatMisc            0      0.00%     84.18% # Number of instructions issued per FU type, per thread (Count)
system.cpu.issuedInstType_0::SimdFloatMult        16398      0.06%     84.24% # Number of instructions issued per FU type, per thread (Count)
system.cpu.issuedInstType_0::SimdFloatMultAcc            0      0.00%     84.24% # Number of instructions issued per FU type, per thread (Count)
system.cpu.issuedInstType_0::SimdFloatMatMultAcc            0      0.00%     84.24% # Number of instructions issued per FU type, per thread (Count)
system.cpu.issuedInstType_0::SimdFloatSqrt            0      0.00%     84.24% # Number of instructions issued per FU type, per thread (Count)
system.cpu.issuedInstType_0::SimdReduceAdd            0      0.00%     84.24% # Number of instructions issued per FU type, per thread (Count)
system.cpu.issuedInstType_0::SimdReduceAlu            0      0.00%     84.24% # Number of instructions issued per FU type, per thread (Count)
system.cpu.issuedInstType_0::SimdReduceCmp            0      0.00%     84.24% # Number of instructions issued per FU type, per thread (Count)
system.cpu.issuedInstType_0::SimdFloatReduceAdd            0      0.00%     84.24% # Number of instructions issued per FU type, per thread (Count)
system.cpu.issuedInstType_0::SimdFloatReduceCmp            0      0.00%     84.24% # Number of instructions issued per FU type, per thread (Count)
system.cpu.issuedInstType_0::SimdAes                0      0.00%     84.24% # Number of instructions issued per FU type, per thread (Count)
system.cpu.issuedInstType_0::SimdAesMix             0      0.00%     84.24% # Number of instructions issued per FU type, per thread (Count)
system.cpu.issuedInstType_0::SimdSha1Hash            0      0.00%     84.24% # Number of instructions issued per FU type, per thread (Count)
system.cpu.issuedInstType_0::SimdSha1Hash2            0      0.00%     84.24% # Number of instructions issued per FU type, per thread (Count)
system.cpu.issuedInstType_0::SimdSha256Hash            0      0.00%     84.24% # Number of instructions issued per FU type, per thread (Count)
system.cpu.issuedInstType_0::SimdSha256Hash2            0      0.00%     84.24% # Number of instructions issued per FU type, per thread (Count)
system.cpu.issuedInstType_0::SimdShaSigma2            0      0.00%     84.24% # Number of instructions issued per FU type, per thread (Count)
system.cpu.issuedInstType_0::SimdShaSigma3            0      0.00%     84.24% # Number of instructions issued per FU type, per thread (Count)
system.cpu.issuedInstType_0::SimdPredAlu            0      0.00%     84.24% # Number of instructions issued per FU type, per thread (Count)
system.cpu.issuedInstType_0::Matrix                 0      0.00%     84.24% # Number of instructions issued per FU type, per thread (Count)
system.cpu.issuedInstType_0::MatrixMov              0      0.00%     84.24% # Number of instructions issued per FU type, per thread (Count)
system.cpu.issuedInstType_0::MatrixOP               0      0.00%     84.24% # Number of instructions issued per FU type, per thread (Count)
system.cpu.issuedInstType_0::MemRead          2452231      9.57%     93.81% # Number of instructions issued per FU type, per thread (Count)
system.cpu.issuedInstType_0::MemWrite         1290923      5.04%     98.84% # Number of instructions issued per FU type, per thread (Count)
system.cpu.issuedInstType_0::FloatMemRead       197557      0.77%     99.61% # Number of instructions issued per FU type, per thread (Count)
system.cpu.issuedInstType_0::FloatMemWrite        99478      0.39%    100.00% # Number of instructions issued per FU type, per thread (Count)
system.cpu.issuedInstType_0::IprAccess              0      0.00%    100.00% # Number of instructions issued per FU type, per thread (Count)
system.cpu.issuedInstType_0::InstPrefetch            0      0.00%    100.00% # Number of instructions issued per FU type, per thread (Count)
system.cpu.issuedInstType_0::SimdUnitStrideLoad            0      0.00%    100.00% # Number of instructions issued per FU type, per thread (Count)
system.cpu.issuedInstType_0::SimdUnitStrideStore            0      0.00%    100.00% # Number of instructions issued per FU type, per thread (Count)
system.cpu.issuedInstType_0::SimdUnitStrideMaskLoad            0      0.00%    100.00% # Number of instructions issued per FU type, per thread (Count)
system.cpu.issuedInstType_0::SimdUnitStrideMaskStore            0      0.00%    100.00% # Number of instructions issued per FU type, per thread (Count)
system.cpu.issuedInstType_0::SimdStridedLoad            0      0.00%    100.00% # Number of instructions issued per FU type, per thread (Count)
system.cpu.issuedInstType_0::SimdStridedStore            0      0.00%    100.00% # Number of instructions issued per FU type, per thread (Count)
system.cpu.issuedInstType_0::SimdIndexedLoad            0      0.00%    100.00% # Number of instructions issued per FU type, per thread (Count)
system.cpu.issuedInstType_0::SimdIndexedStore            0      0.00%    100.00% # Number of instructions issued per FU type, per thread (Count)
system.cpu.issuedInstType_0::SimdWholeRegisterLoad            0      0.00%    100.00% # Number of instructions issued per FU type, per thread (Count)
system.cpu.issuedInstType_0::SimdWholeRegisterStore            0      0.00%    100.00% # Number of instructions issued per FU type, per thread (Count)
system.cpu.issuedInstType_0::SimdUnitStrideFaultOnlyFirstLoad            0      0.00%    100.00% # Number of instructions issued per FU type, per thread (Count)
system.cpu.issuedInstType_0::SimdUnitStrideSegmentedLoad            0      0.00%    100.00% # Number of instructions issued per FU type, per thread (Count)
system.cpu.issuedInstType_0::SimdUnitStrideSegmentedStore            0      0.00%    100.00% # Number of instructions issued per FU type, per thread (Count)
system.cpu.issuedInstType_0::SimdUnitStrideSegmentedFaultOnlyFirstLoad            0      0.00%    100.00% # Number of instructions issued per FU type, per thread (Count)
system.cpu.issuedInstType_0::SimdStrideSegmentedLoad            0      0.00%    100.00% # Number of instructions issued per FU type, per thread (Count)
system.cpu.issuedInstType_0::SimdStrideSegmentedStore            0      0.00%    100.00% # Number of instructions issued per FU type, per thread (Count)
system.cpu.issuedInstType_0::SimdExt                0      0.00%    100.00% # Number of instructions issued per FU type, per thread (Count)
system.cpu.issuedInstType_0::SimdFloatExt            0      0.00%    100.00% # Number of instructions issued per FU type, per thread (Count)
system.cpu.issuedInstType_0::SimdConfig             0      0.00%    100.00% # Number of instructions issued per FU type, per thread (Count)
system.cpu.issuedInstType_0::SimdBf16Cvt            0      0.00%    100.00% # Number of instructions issued per FU type, per thread (Count)
system.cpu.issuedInstType_0::SimdBf16DotProd            0      0.00%    100.00% # Number of instructions issued per FU type, per thread (Count)
system.cpu.issuedInstType_0::SimdBf16MatMultAcc            0      0.00%    100.00% # Number of instructions issued per FU type, per thread (Count)
system.cpu.issuedInstType_0::SimdBf16MultAcc            0      0.00%    100.00% # Number of instructions issued per FU type, per thread (Count)
system.cpu.issuedInstType_0::Bf16Cvt                0      0.00%    100.00% # Number of instructions issued per FU type, per thread (Count)
system.cpu.issuedInstType_0::total           25636327                       # Number of instructions issued per FU type, per thread (Count)
system.cpu.issueRate                         3.299514                       # Inst issue rate ((Count/Cycle))
system.cpu.fuBusy                              427574                       # FU busy when requested (Count)
system.cpu.fuBusyRate                        0.016678                       # FU busy rate (busy events/executed inst) ((Count/Count))
system.cpu.intInstQueueReads                 57078203                       # Number of integer instruction queue reads (Count)
system.cpu.intInstQueueWrites                26786622                       # Number of integer instruction queue writes (Count)
system.cpu.intInstQueueWakeupAccesses        24439188                       # Number of integer instruction queue wakeup accesses (Count)
system.cpu.fpInstQueueReads                   2112159                       # Number of floating instruction queue reads (Count)
system.cpu.fpInstQueueWrites                  1062118                       # Number of floating instruction queue writes (Count)
system.cpu.fpInstQueueWakeupAccesses          1029278                       # Number of floating instruction queue wakeup accesses (Count)
system.cpu.vecInstQueueReads                        0                       # Number of vector instruction queue reads (Count)
system.cpu.vecInstQueueWrites                       0                       # Number of vector instruction queue writes (Count)
system.cpu.vecInstQueueWakeupAccesses               0                       # Number of vector instruction queue wakeup accesses (Count)
system.cpu.intAluAccesses                    24671861                       # Number of integer alu accesses (Count)
system.cpu.fpAluAccesses                      1075739                       # Number of floating point alu accesses (Count)
system.cpu.vecAluAccesses                           0                       # Number of vector alu accesses (Count)
system.cpu.numRecvResp                        3581829                       # Number of received responses (Count)
system.cpu.numRecvRespBytes                  22160597                       # Number of received response bytes (Byte)
system.cpu.recvRespAvgBW                         2.85                       # Average bandwidth of received responses ((Byte/Cycle))
system.cpu.recvRespAvgSize                       6.19                       # Average packet size per received response ((Byte/Count))
system.cpu.recvRespAvgRate                       0.46                       # Average rate of received responses per cycle ((Count/Cycle))
system.cpu.recvRespAvgRetryRate                  0.00                       # Average retry rate per received response ((Count/Count))
system.cpu.numSendRetryResp                         0                       # Number of retry responses sent (Count)
system.cpu.numSquashedInsts                    132577                       # Number of squashed instructions skipped in execute (Count)
system.cpu.numSwp                                   0                       # Number of swp insts executed (Count)
system.cpu.timesIdled                            1264                       # Number of times that the entire CPU went into an idle state and unscheduled itself (Count)
system.cpu.idleCycles                          294501                       # Total number of cycles that the CPU has spent unscheduled due to idling (Cycle)
system.cpu.MemDepUnit__0.insertedLoads        2666638                       # Number of loads inserted to the mem dependence unit. (Count)
system.cpu.MemDepUnit__0.insertedStores       1408210                       # Number of stores inserted to the mem dependence unit. (Count)
system.cpu.MemDepUnit__0.conflictingLoads        73235                       # Number of conflicting loads. (Count)
system.cpu.MemDepUnit__0.conflictingStores        23491                       # Number of conflicting stores. (Count)
system.cpu.MemDepUnit__1.insertedLoads              0                       # Number of loads inserted to the mem dependence unit. (Count)
system.cpu.MemDepUnit__1.insertedStores             0                       # Number of stores inserted to the mem dependence unit. (Count)
system.cpu.MemDepUnit__1.conflictingLoads            0                       # Number of conflicting loads. (Count)
system.cpu.MemDepUnit__1.conflictingStores            0                       # Number of conflicting stores. (Count)
system.cpu.MemDepUnit__2.insertedLoads              0                       # Number of loads inserted to the mem dependence unit. (Count)
system.cpu.MemDepUnit__2.insertedStores             0                       # Number of stores inserted to the mem dependence unit. (Count)
system.cpu.MemDepUnit__2.conflictingLoads            0                       # Number of conflicting loads. (Count)
system.cpu.MemDepUnit__2.conflictingStores            0                       # Number of conflicting stores. (Count)
system.cpu.MemDepUnit__3.insertedLoads              0                       # Number of loads inserted to the mem dependence unit. (Count)
system.cpu.MemDepUnit__3.insertedStores             0                       # Number of stores inserted to the mem dependence unit. (Count)
system.cpu.MemDepUnit__3.conflictingLoads            0                       # Number of conflicting loads. (Count)
system.cpu.MemDepUnit__3.conflictingStores            0                       # Number of conflicting stores. (Count)
system.cpu.bac.fetchTargets                         0                       # Number of fetch targets created  (Count)
system.cpu.bac.branches                       3191420                       # Number of branches that BAC encountered (Count)
system.cpu.bac.predTakenBranches              1855803                       # Number of branches that BAC predicted taken. (Count)
system.cpu.bac.branchesNotLastuOp                   0                       # Number of branches that fetch encountered which are not the last uOp within a macrooperation. Jump to itself. (Count)
system.cpu.bac.branchMisspredict                64636                       # Number of mispredicted branches (Count)
system.cpu.bac.noBranchMisspredict               3384                       # Number of non-branch instructions mispredicted (Count)
system.cpu.bac.squashBranchDecode                7080                       # Number of branches squashed from decode (Count)
system.cpu.bac.squashBranchCommit               57556                       # Number of branches squashed from commit (Count)
system.cpu.bac.preDecUpdate::NoBranch               0                       # Number of branches extracted from the predecoder (Count)
system.cpu.bac.preDecUpdate::Return                 0                       # Number of branches extracted from the predecoder (Count)
system.cpu.bac.preDecUpdate::CallDirect             0                       # Number of branches extracted from the predecoder (Count)
system.cpu.bac.preDecUpdate::CallIndirect            0                       # Number of branches extracted from the predecoder (Count)
system.cpu.bac.preDecUpdate::DirectCond             0                       # Number of branches extracted from the predecoder (Count)
system.cpu.bac.preDecUpdate::DirectUncond            0                       # Number of branches extracted from the predecoder (Count)
system.cpu.bac.preDecUpdate::IndirectCond            0                       # Number of branches extracted from the predecoder (Count)
system.cpu.bac.preDecUpdate::IndirectUncond            0                       # Number of branches extracted from the predecoder (Count)
system.cpu.bac.preDecUpdate::total                  0                       # Number of branches extracted from the predecoder (Count)
system.cpu.bac.noHistByType::NoBranch               0                       # Number and type of branches that were undetected by the BPU. (Count)
system.cpu.bac.noHistByType::Return                 0                       # Number and type of branches that were undetected by the BPU. (Count)
system.cpu.bac.noHistByType::CallDirect             0                       # Number and type of branches that were undetected by the BPU. (Count)
system.cpu.bac.noHistByType::CallIndirect            0                       # Number and type of branches that were undetected by the BPU. (Count)
system.cpu.bac.noHistByType::DirectCond             0                       # Number and type of branches that were undetected by the BPU. (Count)
system.cpu.bac.noHistByType::DirectUncond            0                       # Number and type of branches that were undetected by the BPU. (Count)
system.cpu.bac.noHistByType::IndirectCond            0                       # Number and type of branches that were undetected by the BPU. (Count)
system.cpu.bac.noHistByType::IndirectUncond            0                       # Number and type of branches that were undetected by the BPU. (Count)
system.cpu.bac.noHistByType::total                  0                       # Number and type of branches that were undetected by the BPU. (Count)
system.cpu.bac.typeMissmatch                        0                       # Number branches where the branch type miss match (Count)
system.cpu.bac.multiBranchInst                      0                       # Number branches because its not the last branch. (Count)
system.cpu.bac.ftSizeDist::samples                  0                       # Number of bytes per fetch target (Count)
system.cpu.bac.ftSizeDist::mean                   nan                       # Number of bytes per fetch target (Count)
system.cpu.bac.ftSizeDist::stdev                  nan                       # Number of bytes per fetch target (Count)
system.cpu.bac.ftSizeDist::underflows               0                       # Number of bytes per fetch target (Count)
system.cpu.bac.ftSizeDist::0-3                      0                       # Number of bytes per fetch target (Count)
system.cpu.bac.ftSizeDist::4-7                      0                       # Number of bytes per fetch target (Count)
system.cpu.bac.ftSizeDist::8-11                     0                       # Number of bytes per fetch target (Count)
system.cpu.bac.ftSizeDist::12-15                    0                       # Number of bytes per fetch target (Count)
system.cpu.bac.ftSizeDist::16-19                    0                       # Number of bytes per fetch target (Count)
system.cpu.bac.ftSizeDist::20-23                    0                       # Number of bytes per fetch target (Count)
system.cpu.bac.ftSizeDist::24-27                    0                       # Number of bytes per fetch target (Count)
system.cpu.bac.ftSizeDist::28-31                    0                       # Number of bytes per fetch target (Count)
system.cpu.bac.ftSizeDist::32                       0                       # Number of bytes per fetch target (Count)
system.cpu.bac.ftSizeDist::overflows                0                       # Number of bytes per fetch target (Count)
system.cpu.bac.ftSizeDist::min_value                0                       # Number of bytes per fetch target (Count)
system.cpu.bac.ftSizeDist::max_value                0                       # Number of bytes per fetch target (Count)
system.cpu.bac.ftSizeDist::total                    0                       # Number of bytes per fetch target (Count)
system.cpu.bac.ftNumber::samples                    0                       # Number of fetch target inserted to the FTQ per cycle (Count)
system.cpu.bac.ftNumber::mean                     nan                       # Number of fetch target inserted to the FTQ per cycle (Count)
system.cpu.bac.ftNumber::stdev                    nan                       # Number of fetch target inserted to the FTQ per cycle (Count)
system.cpu.bac.ftNumber::underflows                 0                       # Number of fetch target inserted to the FTQ per cycle (Count)
system.cpu.bac.ftNumber::0                          0                       # Number of fetch target inserted to the FTQ per cycle (Count)
system.cpu.bac.ftNumber::1                          0                       # Number of fetch target inserted to the FTQ per cycle (Count)
system.cpu.bac.ftNumber::2                          0                       # Number of fetch target inserted to the FTQ per cycle (Count)
system.cpu.bac.ftNumber::3                          0                       # Number of fetch target inserted to the FTQ per cycle (Count)
system.cpu.bac.ftNumber::4                          0                       # Number of fetch target inserted to the FTQ per cycle (Count)
system.cpu.bac.ftNumber::overflows                  0                       # Number of fetch target inserted to the FTQ per cycle (Count)
system.cpu.bac.ftNumber::min_value                  0                       # Number of fetch target inserted to the FTQ per cycle (Count)
system.cpu.bac.ftNumber::max_value                  0                       # Number of fetch target inserted to the FTQ per cycle (Count)
system.cpu.bac.ftNumber::total                      0                       # Number of fetch target inserted to the FTQ per cycle (Count)
system.cpu.branchPred.lookups_0::NoBranch         1639      0.05%      0.05% # Number of BP lookups (Count)
system.cpu.branchPred.lookups_0::Return        172959      5.42%      5.47% # Number of BP lookups (Count)
system.cpu.branchPred.lookups_0::CallDirect       181073      5.67%     11.14% # Number of BP lookups (Count)
system.cpu.branchPred.lookups_0::CallIndirect          172      0.01%     11.15% # Number of BP lookups (Count)
system.cpu.branchPred.lookups_0::DirectCond      2504976     78.49%     89.64% # Number of BP lookups (Count)
system.cpu.branchPred.lookups_0::DirectUncond       265149      8.31%     97.95% # Number of BP lookups (Count)
system.cpu.branchPred.lookups_0::IndirectCond            0      0.00%     97.95% # Number of BP lookups (Count)
system.cpu.branchPred.lookups_0::IndirectUncond        65452      2.05%    100.00% # Number of BP lookups (Count)
system.cpu.branchPred.lookups_0::total        3191420                       # Number of BP lookups (Count)
system.cpu.branchPred.squashes_0::NoBranch         1588      0.46%      0.46% # Number of branches that got squashed (completely removed) as an earlier branch was mispredicted. (Count)
system.cpu.branchPred.squashes_0::Return         7698      2.24%      2.70% # Number of branches that got squashed (completely removed) as an earlier branch was mispredicted. (Count)
system.cpu.branchPred.squashes_0::CallDirect        15914      4.63%      7.33% # Number of branches that got squashed (completely removed) as an earlier branch was mispredicted. (Count)
system.cpu.branchPred.squashes_0::CallIndirect           65      0.02%      7.35% # Number of branches that got squashed (completely removed) as an earlier branch was mispredicted. (Count)
system.cpu.branchPred.squashes_0::DirectCond       287682     83.73%     91.08% # Number of branches that got squashed (completely removed) as an earlier branch was mispredicted. (Count)
system.cpu.branchPred.squashes_0::DirectUncond        28633      8.33%     99.42% # Number of branches that got squashed (completely removed) as an earlier branch was mispredicted. (Count)
system.cpu.branchPred.squashes_0::IndirectCond            0      0.00%     99.42% # Number of branches that got squashed (completely removed) as an earlier branch was mispredicted. (Count)
system.cpu.branchPred.squashes_0::IndirectUncond         2009      0.58%    100.00% # Number of branches that got squashed (completely removed) as an earlier branch was mispredicted. (Count)
system.cpu.branchPred.squashes_0::total        343589                       # Number of branches that got squashed (completely removed) as an earlier branch was mispredicted. (Count)
system.cpu.branchPred.corrected_0::NoBranch          128      0.20%      0.20% # Number of branches that got corrected but not yet commited. Branches get corrected by decode or after execute. Also a branch misprediction can be detected out-of-order. Therefore, a corrected branch might not end up beeing committed in case an even earlier branch was mispredicted (Count)
system.cpu.branchPred.corrected_0::Return            4      0.01%      0.20% # Number of branches that got corrected but not yet commited. Branches get corrected by decode or after execute. Also a branch misprediction can be detected out-of-order. Therefore, a corrected branch might not end up beeing committed in case an even earlier branch was mispredicted (Count)
system.cpu.branchPred.corrected_0::CallDirect          429      0.66%      0.87% # Number of branches that got corrected but not yet commited. Branches get corrected by decode or after execute. Also a branch misprediction can be detected out-of-order. Therefore, a corrected branch might not end up beeing committed in case an even earlier branch was mispredicted (Count)
system.cpu.branchPred.corrected_0::CallIndirect          107      0.17%      1.03% # Number of branches that got corrected but not yet commited. Branches get corrected by decode or after execute. Also a branch misprediction can be detected out-of-order. Therefore, a corrected branch might not end up beeing committed in case an even earlier branch was mispredicted (Count)
system.cpu.branchPred.corrected_0::DirectCond        57072     88.30%     89.33% # Number of branches that got corrected but not yet commited. Branches get corrected by decode or after execute. Also a branch misprediction can be detected out-of-order. Therefore, a corrected branch might not end up beeing committed in case an even earlier branch was mispredicted (Count)
system.cpu.branchPred.corrected_0::DirectUncond         6618     10.24%     99.57% # Number of branches that got corrected but not yet commited. Branches get corrected by decode or after execute. Also a branch misprediction can be detected out-of-order. Therefore, a corrected branch might not end up beeing committed in case an even earlier branch was mispredicted (Count)
system.cpu.branchPred.corrected_0::IndirectCond            0      0.00%     99.57% # Number of branches that got corrected but not yet commited. Branches get corrected by decode or after execute. Also a branch misprediction can be detected out-of-order. Therefore, a corrected branch might not end up beeing committed in case an even earlier branch was mispredicted (Count)
system.cpu.branchPred.corrected_0::IndirectUncond          278      0.43%    100.00% # Number of branches that got corrected but not yet commited. Branches get corrected by decode or after execute. Also a branch misprediction can be detected out-of-order. Therefore, a corrected branch might not end up beeing committed in case an even earlier branch was mispredicted (Count)
system.cpu.branchPred.corrected_0::total        64636                       # Number of branches that got corrected but not yet commited. Branches get corrected by decode or after execute. Also a branch misprediction can be detected out-of-order. Therefore, a corrected branch might not end up beeing committed in case an even earlier branch was mispredicted (Count)
system.cpu.branchPred.earlyResteers_0::NoBranch            0      0.00%      0.00% # Number of branches that got redirected after decode. (Count)
system.cpu.branchPred.earlyResteers_0::Return            0      0.00%      0.00% # Number of branches that got redirected after decode. (Count)
system.cpu.branchPred.earlyResteers_0::CallDirect          429      6.06%      6.06% # Number of branches that got redirected after decode. (Count)
system.cpu.branchPred.earlyResteers_0::CallIndirect            0      0.00%      6.06% # Number of branches that got redirected after decode. (Count)
system.cpu.branchPred.earlyResteers_0::DirectCond           33      0.47%      6.53% # Number of branches that got redirected after decode. (Count)
system.cpu.branchPred.earlyResteers_0::DirectUncond         6618     93.47%    100.00% # Number of branches that got redirected after decode. (Count)
system.cpu.branchPred.earlyResteers_0::IndirectCond            0      0.00%    100.00% # Number of branches that got redirected after decode. (Count)
system.cpu.branchPred.earlyResteers_0::IndirectUncond            0      0.00%    100.00% # Number of branches that got redirected after decode. (Count)
system.cpu.branchPred.earlyResteers_0::total         7080                       # Number of branches that got redirected after decode. (Count)
system.cpu.branchPred.committed_0::NoBranch           51      0.00%      0.00% # Number of branches finally committed  (Count)
system.cpu.branchPred.committed_0::Return       165261      5.80%      5.80% # Number of branches finally committed  (Count)
system.cpu.branchPred.committed_0::CallDirect       165159      5.80%     11.60% # Number of branches finally committed  (Count)
system.cpu.branchPred.committed_0::CallIndirect          107      0.00%     11.61% # Number of branches finally committed  (Count)
system.cpu.branchPred.committed_0::DirectCond      2217293     77.86%     89.47% # Number of branches finally committed  (Count)
system.cpu.branchPred.committed_0::DirectUncond       236516      8.31%     97.77% # Number of branches finally committed  (Count)
system.cpu.branchPred.committed_0::IndirectCond            0      0.00%     97.77% # Number of branches finally committed  (Count)
system.cpu.branchPred.committed_0::IndirectUncond        63443      2.23%    100.00% # Number of branches finally committed  (Count)
system.cpu.branchPred.committed_0::total      2847830                       # Number of branches finally committed  (Count)
system.cpu.branchPred.mispredicted_0::NoBranch           51      0.08%      0.08% # Number of committed branches that were mispredicted. (Count)
system.cpu.branchPred.mispredicted_0::Return            0      0.00%      0.08% # Number of committed branches that were mispredicted. (Count)
system.cpu.branchPred.mispredicted_0::CallDirect          252      0.42%      0.50% # Number of committed branches that were mispredicted. (Count)
system.cpu.branchPred.mispredicted_0::CallIndirect          103      0.17%      0.68% # Number of committed branches that were mispredicted. (Count)
system.cpu.branchPred.mispredicted_0::DirectCond        52997     88.19%     88.86% # Number of committed branches that were mispredicted. (Count)
system.cpu.branchPred.mispredicted_0::DirectUncond         6446     10.73%     99.59% # Number of committed branches that were mispredicted. (Count)
system.cpu.branchPred.mispredicted_0::IndirectCond            0      0.00%     99.59% # Number of committed branches that were mispredicted. (Count)
system.cpu.branchPred.mispredicted_0::IndirectUncond          248      0.41%    100.00% # Number of committed branches that were mispredicted. (Count)
system.cpu.branchPred.mispredicted_0::total        60097                       # Number of committed branches that were mispredicted. (Count)
system.cpu.branchPred.mispredictDueToPredictor_0::NoBranch           51      0.12%      0.12% # Number of committed branches that were mispredicted by the predictor. (Count)
system.cpu.branchPred.mispredictDueToPredictor_0::Return            0      0.00%      0.12% # Number of committed branches that were mispredicted by the predictor. (Count)
system.cpu.branchPred.mispredictDueToPredictor_0::CallDirect            0      0.00%      0.12% # Number of committed branches that were mispredicted by the predictor. (Count)
system.cpu.branchPred.mispredictDueToPredictor_0::CallIndirect            0      0.00%      0.12% # Number of committed branches that were mispredicted by the predictor. (Count)
system.cpu.branchPred.mispredictDueToPredictor_0::DirectCond        44183     99.88%    100.00% # Number of committed branches that were mispredicted by the predictor. (Count)
system.cpu.branchPred.mispredictDueToPredictor_0::DirectUncond            0      0.00%    100.00% # Number of committed branches that were mispredicted by the predictor. (Count)
system.cpu.branchPred.mispredictDueToPredictor_0::IndirectCond            0      0.00%    100.00% # Number of committed branches that were mispredicted by the predictor. (Count)
system.cpu.branchPred.mispredictDueToPredictor_0::IndirectUncond            0      0.00%    100.00% # Number of committed branches that were mispredicted by the predictor. (Count)
system.cpu.branchPred.mispredictDueToPredictor_0::total        44234                       # Number of committed branches that were mispredicted by the predictor. (Count)
system.cpu.branchPred.mispredictDueToBTBMiss_0::NoBranch            0      0.00%      0.00% # Number of committed branches that were mispredicted because of a BTB miss. (Count)
system.cpu.branchPred.mispredictDueToBTBMiss_0::Return            0      0.00%      0.00% # Number of committed branches that were mispredicted because of a BTB miss. (Count)
system.cpu.branchPred.mispredictDueToBTBMiss_0::CallDirect          252      1.59%      1.59% # Number of committed branches that were mispredicted because of a BTB miss. (Count)
system.cpu.branchPred.mispredictDueToBTBMiss_0::CallIndirect          103      0.65%      2.24% # Number of committed branches that were mispredicted because of a BTB miss. (Count)
system.cpu.branchPred.mispredictDueToBTBMiss_0::DirectCond         8814     55.56%     57.80% # Number of committed branches that were mispredicted because of a BTB miss. (Count)
system.cpu.branchPred.mispredictDueToBTBMiss_0::DirectUncond         6446     40.64%     98.44% # Number of committed branches that were mispredicted because of a BTB miss. (Count)
system.cpu.branchPred.mispredictDueToBTBMiss_0::IndirectCond            0      0.00%     98.44% # Number of committed branches that were mispredicted because of a BTB miss. (Count)
system.cpu.branchPred.mispredictDueToBTBMiss_0::IndirectUncond          248      1.56%    100.00% # Number of committed branches that were mispredicted because of a BTB miss. (Count)
system.cpu.branchPred.mispredictDueToBTBMiss_0::total        15863                       # Number of committed branches that were mispredicted because of a BTB miss. (Count)
system.cpu.branchPred.targetProvider_0::NoTarget      1335617     41.85%     41.85% # The component providing the target for taken branches (Count)
system.cpu.branchPred.targetProvider_0::BTB      1619071     50.73%     92.58% # The component providing the target for taken branches (Count)
system.cpu.branchPred.targetProvider_0::RAS       172959      5.42%     98.00% # The component providing the target for taken branches (Count)
system.cpu.branchPred.targetProvider_0::Indirect        63773      2.00%    100.00% # The component providing the target for taken branches (Count)
system.cpu.branchPred.targetProvider_0::total      3191420                       # The component providing the target for taken branches (Count)
system.cpu.branchPred.targetWrong_0::NoBranch        35831     66.02%     66.02% # Number of branches where the target was incorrect or not available at prediction time. (Count)
system.cpu.branchPred.targetWrong_0::Return        18413     33.93%     99.95% # Number of branches where the target was incorrect or not available at prediction time. (Count)
system.cpu.branchPred.targetWrong_0::CallDirect            4      0.01%     99.96% # Number of branches where the target was incorrect or not available at prediction time. (Count)
system.cpu.branchPred.targetWrong_0::CallIndirect           23      0.04%    100.00% # Number of branches where the target was incorrect or not available at prediction time. (Count)
system.cpu.branchPred.targetWrong_0::DirectCond            0      0.00%    100.00% # Number of branches where the target was incorrect or not available at prediction time. (Count)
system.cpu.branchPred.targetWrong_0::DirectUncond            0      0.00%    100.00% # Number of branches where the target was incorrect or not available at prediction time. (Count)
system.cpu.branchPred.targetWrong_0::IndirectCond            0      0.00%    100.00% # Number of branches where the target was incorrect or not available at prediction time. (Count)
system.cpu.branchPred.targetWrong_0::IndirectUncond            0      0.00%    100.00% # Number of branches where the target was incorrect or not available at prediction time. (Count)
system.cpu.branchPred.targetWrong_0::total        54271                       # Number of branches where the target was incorrect or not available at prediction time. (Count)
system.cpu.branchPred.condPredicted           2504976                       # Number of conditional branches predicted (Count)
system.cpu.branchPred.condPredictedTaken      1195028                       # Number of conditional branches predicted as taken (Count)
system.cpu.branchPred.condIncorrect             60097                       # Number of conditional branches incorrect (Count)
system.cpu.branchPred.predTakenBTBMiss          15164                       # Number of branches predicted taken but missed in BTB (Count)
system.cpu.branchPred.BTBLookups              3191420                       # Number of BTB lookups (Count)
system.cpu.branchPred.BTBUpdates                41519                       # Number of BTB updates (Count)
system.cpu.branchPred.BTBHits                 2005622                       # Number of BTB hits (Count)
system.cpu.branchPred.BTBHitRatio            0.628442                       # BTB Hit Ratio (Ratio)
system.cpu.branchPred.BTBMispredicted           18015                       # Number BTB mispredictions. No target found or target wrong (Count)
system.cpu.branchPred.indirectLookups           65624                       # Number of indirect predictor lookups. (Count)
system.cpu.branchPred.indirectHits              63773                       # Number of indirect target hits. (Count)
system.cpu.branchPred.indirectMisses             1851                       # Number of indirect misses. (Count)
system.cpu.branchPred.indirectMispredicted            0                       # Number of mispredicted indirect branches. (Count)
system.cpu.branchPred.btb.lookups::NoBranch         1639      0.05%      0.05% # Number of BTB lookups (Count)
system.cpu.branchPred.btb.lookups::Return       172959      5.42%      5.47% # Number of BTB lookups (Count)
system.cpu.branchPred.btb.lookups::CallDirect       181073      5.67%     11.14% # Number of BTB lookups (Count)
system.cpu.branchPred.btb.lookups::CallIndirect          172      0.01%     11.15% # Number of BTB lookups (Count)
system.cpu.branchPred.btb.lookups::DirectCond      2504976     78.49%     89.64% # Number of BTB lookups (Count)
system.cpu.branchPred.btb.lookups::DirectUncond       265149      8.31%     97.95% # Number of BTB lookups (Count)
system.cpu.branchPred.btb.lookups::IndirectCond            0      0.00%     97.95% # Number of BTB lookups (Count)
system.cpu.branchPred.btb.lookups::IndirectUncond        65452      2.05%    100.00% # Number of BTB lookups (Count)
system.cpu.branchPred.btb.lookups::total      3191420                       # Number of BTB lookups (Count)
system.cpu.branchPred.btb.misses::NoBranch          238      0.02%      0.02% # Number of BTB misses (Count)
system.cpu.branchPred.btb.misses::Return       172959     14.59%     14.61% # Number of BTB misses (Count)
system.cpu.branchPred.btb.misses::CallDirect          619      0.05%     14.66% # Number of BTB misses (Count)
system.cpu.branchPred.btb.misses::CallIndirect          172      0.01%     14.67% # Number of BTB misses (Count)
system.cpu.branchPred.btb.misses::DirectCond       934443     78.80%     93.48% # Number of BTB misses (Count)
system.cpu.branchPred.btb.misses::DirectUncond        11915      1.00%     94.48% # Number of BTB misses (Count)
system.cpu.branchPred.btb.misses::IndirectCond            0      0.00%     94.48% # Number of BTB misses (Count)
system.cpu.branchPred.btb.misses::IndirectUncond        65452      5.52%    100.00% # Number of BTB misses (Count)
system.cpu.branchPred.btb.misses::total       1185798                       # Number of BTB misses (Count)
system.cpu.branchPred.btb.updates::NoBranch          128      0.31%      0.31% # Number of BTB updates (Count)
system.cpu.branchPred.btb.updates::Return            0      0.00%      0.31% # Number of BTB updates (Count)
system.cpu.branchPred.btb.updates::CallDirect          429      1.03%      1.34% # Number of BTB updates (Count)
system.cpu.branchPred.btb.updates::CallIndirect            0      0.00%      1.34% # Number of BTB updates (Count)
system.cpu.branchPred.btb.updates::DirectCond        34344     82.72%     84.06% # Number of BTB updates (Count)
system.cpu.branchPred.btb.updates::DirectUncond         6618     15.94%    100.00% # Number of BTB updates (Count)
system.cpu.branchPred.btb.updates::IndirectCond            0      0.00%    100.00% # Number of BTB updates (Count)
system.cpu.branchPred.btb.updates::IndirectUncond            0      0.00%    100.00% # Number of BTB updates (Count)
system.cpu.branchPred.btb.updates::total        41519                       # Number of BTB updates (Count)
system.cpu.branchPred.btb.mispredict::NoBranch          128      0.31%      0.31% # Number of BTB mispredictions. No target found or target wrong. (Count)
system.cpu.branchPred.btb.mispredict::Return            0      0.00%      0.31% # Number of BTB mispredictions. No target found or target wrong. (Count)
system.cpu.branchPred.btb.mispredict::CallDirect          429      1.03%      1.34% # Number of BTB mispredictions. No target found or target wrong. (Count)
system.cpu.branchPred.btb.mispredict::CallIndirect            0      0.00%      1.34% # Number of BTB mispredictions. No target found or target wrong. (Count)
system.cpu.branchPred.btb.mispredict::DirectCond        34344     82.72%     84.06% # Number of BTB mispredictions. No target found or target wrong. (Count)
system.cpu.branchPred.btb.mispredict::DirectUncond         6618     15.94%    100.00% # Number of BTB mispredictions. No target found or target wrong. (Count)
system.cpu.branchPred.btb.mispredict::IndirectCond            0      0.00%    100.00% # Number of BTB mispredictions. No target found or target wrong. (Count)
system.cpu.branchPred.btb.mispredict::IndirectUncond            0      0.00%    100.00% # Number of BTB mispredictions. No target found or target wrong. (Count)
system.cpu.branchPred.btb.mispredict::total        41519                       # Number of BTB mispredictions. No target found or target wrong. (Count)
system.cpu.branchPred.btb.power_state.pwrStateResidencyTicks::UNDEFINED   1942431750                       # Cumulative time (in ticks) in various power states (Tick)
system.cpu.branchPred.indirectBranchPred.lookups        65624                       # Number of lookups (Count)
system.cpu.branchPred.indirectBranchPred.hits        63773                       # Number of hits of a tag (Count)
system.cpu.branchPred.indirectBranchPred.misses         1851                       # Number of misses (Count)
system.cpu.branchPred.indirectBranchPred.targetRecords          385                       # Number of targets that where recorded/installed in the cache (Count)
system.cpu.branchPred.indirectBranchPred.indirectRecords        66009                       # Number of indirect branches/calls recorded in the indirect hist (Count)
system.cpu.branchPred.indirectBranchPred.speculativeOverflows            5                       # Number of times more than the allowed capacity for speculative branches/calls where in flight and destroy the path history (Count)
system.cpu.branchPred.ras.pushes               188943                       # Number of times a PC was pushed onto the RAS (Count)
system.cpu.branchPred.ras.pops                 188938                       # Number of times a PC was poped from the RAS (Count)
system.cpu.branchPred.ras.squashes              23677                       # Number of times the stack operation was squashed due to wrong speculation. (Count)
system.cpu.branchPred.ras.used                 165261                       # Number of times the RAS is the provider (Count)
system.cpu.branchPred.ras.correct              165261                       # Number of times the RAS is the provider and the prediction is correct (Count)
system.cpu.branchPred.ras.incorrect                 0                       # Number of times the RAS is the provider and the prediction is wrong (Count)
system.cpu.commit.commitSquashedInsts         1618533                       # The number of squashed insts skipped by commit (Count)
system.cpu.commit.commitNonSpecStalls              36                       # The number of times commit has been forced to stall to communicate backwards (Count)
system.cpu.commit.branchMispredicts             58601                       # The number of times a branch was mispredicted (Count)
system.cpu.commit.numCommittedDist::samples      7231290                       # Number of insts commited each cycle (Count)
system.cpu.commit.numCommittedDist::mean     3.401523                       # Number of insts commited each cycle (Count)
system.cpu.commit.numCommittedDist::stdev     2.974464                       # Number of insts commited each cycle (Count)
system.cpu.commit.numCommittedDist::underflows            0      0.00%      0.00% # Number of insts commited each cycle (Count)
system.cpu.commit.numCommittedDist::0         1219569     16.87%     16.87% # Number of insts commited each cycle (Count)
system.cpu.commit.numCommittedDist::1         1471652     20.35%     37.22% # Number of insts commited each cycle (Count)
system.cpu.commit.numCommittedDist::2          988312     13.67%     50.88% # Number of insts commited each cycle (Count)
system.cpu.commit.numCommittedDist::3          959029     13.26%     64.15% # Number of insts commited each cycle (Count)
system.cpu.commit.numCommittedDist::4          248574      3.44%     67.58% # Number of insts commited each cycle (Count)
system.cpu.commit.numCommittedDist::5          222548      3.08%     70.66% # Number of insts commited each cycle (Count)
system.cpu.commit.numCommittedDist::6          192419      2.66%     73.32% # Number of insts commited each cycle (Count)
system.cpu.commit.numCommittedDist::7          423007      5.85%     79.17% # Number of insts commited each cycle (Count)
system.cpu.commit.numCommittedDist::8         1506180     20.83%    100.00% # Number of insts commited each cycle (Count)
system.cpu.commit.numCommittedDist::overflows            0      0.00%    100.00% # Number of insts commited each cycle (Count)
system.cpu.commit.numCommittedDist::min_value            0                       # Number of insts commited each cycle (Count)
system.cpu.commit.numCommittedDist::max_value            8                       # Number of insts commited each cycle (Count)
system.cpu.commit.numCommittedDist::total      7231290                       # Number of insts commited each cycle (Count)
system.cpu.commit.amos                              0                       # Number of atomic instructions committed (Count)
system.cpu.commit.membars                          24                       # Number of memory barriers committed (Count)
system.cpu.commit.committedInstType_0::No_OpClass       303929      1.24%      1.24% # Class of committed instruction (Count)
system.cpu.commit.committedInstType_0::IntAlu     19478442     79.19%     80.42% # Class of committed instruction (Count)
system.cpu.commit.committedInstType_0::IntMult        43139      0.18%     80.60% # Class of committed instruction (Count)
system.cpu.commit.committedInstType_0::IntDiv       244987      1.00%     81.60% # Class of committed instruction (Count)
system.cpu.commit.committedInstType_0::FloatAdd        69067      0.28%     81.88% # Class of committed instruction (Count)
system.cpu.commit.committedInstType_0::FloatCmp            0      0.00%     81.88% # Class of committed instruction (Count)
system.cpu.commit.committedInstType_0::FloatCvt            0      0.00%     81.88% # Class of committed instruction (Count)
system.cpu.commit.committedInstType_0::FloatMult            0      0.00%     81.88% # Class of committed instruction (Count)
system.cpu.commit.committedInstType_0::FloatMultAcc            0      0.00%     81.88% # Class of committed instruction (Count)
system.cpu.commit.committedInstType_0::FloatDiv            0      0.00%     81.88% # Class of committed instruction (Count)
system.cpu.commit.committedInstType_0::FloatMisc            0      0.00%     81.88% # Class of committed instruction (Count)
system.cpu.commit.committedInstType_0::FloatSqrt            0      0.00%     81.88% # Class of committed instruction (Count)
system.cpu.commit.committedInstType_0::SimdAdd          506      0.00%     81.88% # Class of committed instruction (Count)
system.cpu.commit.committedInstType_0::SimdAddAcc            0      0.00%     81.88% # Class of committed instruction (Count)
system.cpu.commit.committedInstType_0::SimdAlu       171606      0.70%     82.58% # Class of committed instruction (Count)
system.cpu.commit.committedInstType_0::SimdCmp          484      0.00%     82.58% # Class of committed instruction (Count)
system.cpu.commit.committedInstType_0::SimdCvt       155308      0.63%     83.21% # Class of committed instruction (Count)
system.cpu.commit.committedInstType_0::SimdMisc       181914      0.74%     83.95% # Class of committed instruction (Count)
system.cpu.commit.committedInstType_0::SimdMult            0      0.00%     83.95% # Class of committed instruction (Count)
system.cpu.commit.committedInstType_0::SimdMultAcc            0      0.00%     83.95% # Class of committed instruction (Count)
system.cpu.commit.committedInstType_0::SimdMatMultAcc            0      0.00%     83.95% # Class of committed instruction (Count)
system.cpu.commit.committedInstType_0::SimdShift          285      0.00%     83.95% # Class of committed instruction (Count)
system.cpu.commit.committedInstType_0::SimdShiftAcc            0      0.00%     83.95% # Class of committed instruction (Count)
system.cpu.commit.committedInstType_0::SimdDiv            0      0.00%     83.95% # Class of committed instruction (Count)
system.cpu.commit.committedInstType_0::SimdSqrt            0      0.00%     83.95% # Class of committed instruction (Count)
system.cpu.commit.committedInstType_0::SimdFloatAdd        35839      0.15%     84.10% # Class of committed instruction (Count)
system.cpu.commit.committedInstType_0::SimdFloatAlu            0      0.00%     84.10% # Class of committed instruction (Count)
system.cpu.commit.committedInstType_0::SimdFloatCmp            0      0.00%     84.10% # Class of committed instruction (Count)
system.cpu.commit.committedInstType_0::SimdFloatCvt         8192      0.03%     84.13% # Class of committed instruction (Count)
system.cpu.commit.committedInstType_0::SimdFloatDiv            0      0.00%     84.13% # Class of committed instruction (Count)
system.cpu.commit.committedInstType_0::SimdFloatMisc            0      0.00%     84.13% # Class of committed instruction (Count)
system.cpu.commit.committedInstType_0::SimdFloatMult        16388      0.07%     84.20% # Class of committed instruction (Count)
system.cpu.commit.committedInstType_0::SimdFloatMultAcc            0      0.00%     84.20% # Class of committed instruction (Count)
system.cpu.commit.committedInstType_0::SimdFloatMatMultAcc            0      0.00%     84.20% # Class of committed instruction (Count)
system.cpu.commit.committedInstType_0::SimdFloatSqrt            0      0.00%     84.20% # Class of committed instruction (Count)
system.cpu.commit.committedInstType_0::SimdReduceAdd            0      0.00%     84.20% # Class of committed instruction (Count)
system.cpu.commit.committedInstType_0::SimdReduceAlu            0      0.00%     84.20% # Class of committed instruction (Count)
system.cpu.commit.committedInstType_0::SimdReduceCmp            0      0.00%     84.20% # Class of committed instruction (Count)
system.cpu.commit.committedInstType_0::SimdFloatReduceAdd            0      0.00%     84.20% # Class of committed instruction (Count)
system.cpu.commit.committedInstType_0::SimdFloatReduceCmp            0      0.00%     84.20% # Class of committed instruction (Count)
system.cpu.commit.committedInstType_0::SimdAes            0      0.00%     84.20% # Class of committed instruction (Count)
system.cpu.commit.committedInstType_0::SimdAesMix            0      0.00%     84.20% # Class of committed instruction (Count)
system.cpu.commit.committedInstType_0::SimdSha1Hash            0      0.00%     84.20% # Class of committed instruction (Count)
system.cpu.commit.committedInstType_0::SimdSha1Hash2            0      0.00%     84.20% # Class of committed instruction (Count)
system.cpu.commit.committedInstType_0::SimdSha256Hash            0      0.00%     84.20% # Class of committed instruction (Count)
system.cpu.commit.committedInstType_0::SimdSha256Hash2            0      0.00%     84.20% # Class of committed instruction (Count)
system.cpu.commit.committedInstType_0::SimdShaSigma2            0      0.00%     84.20% # Class of committed instruction (Count)
system.cpu.commit.committedInstType_0::SimdShaSigma3            0      0.00%     84.20% # Class of committed instruction (Count)
system.cpu.commit.committedInstType_0::SimdPredAlu            0      0.00%     84.20% # Class of committed instruction (Count)
system.cpu.commit.committedInstType_0::Matrix            0      0.00%     84.20% # Class of committed instruction (Count)
system.cpu.commit.committedInstType_0::MatrixMov            0      0.00%     84.20% # Class of committed instruction (Count)
system.cpu.commit.committedInstType_0::MatrixOP            0      0.00%     84.20% # Class of committed instruction (Count)
system.cpu.commit.committedInstType_0::MemRead      2341331      9.52%     93.71% # Class of committed instruction (Count)
system.cpu.commit.committedInstType_0::MemWrite      1257144      5.11%     98.83% # Class of committed instruction (Count)
system.cpu.commit.committedInstType_0::FloatMemRead       189923      0.77%     99.60% # Class of committed instruction (Count)
system.cpu.commit.committedInstType_0::FloatMemWrite        98918      0.40%    100.00% # Class of committed instruction (Count)
system.cpu.commit.committedInstType_0::IprAccess            0      0.00%    100.00% # Class of committed instruction (Count)
system.cpu.commit.committedInstType_0::InstPrefetch            0      0.00%    100.00% # Class of committed instruction (Count)
system.cpu.commit.committedInstType_0::SimdUnitStrideLoad            0      0.00%    100.00% # Class of committed instruction (Count)
system.cpu.commit.committedInstType_0::SimdUnitStrideStore            0      0.00%    100.00% # Class of committed instruction (Count)
system.cpu.commit.committedInstType_0::SimdUnitStrideMaskLoad            0      0.00%    100.00% # Class of committed instruction (Count)
system.cpu.commit.committedInstType_0::SimdUnitStrideMaskStore            0      0.00%    100.00% # Class of committed instruction (Count)
system.cpu.commit.committedInstType_0::SimdStridedLoad            0      0.00%    100.00% # Class of committed instruction (Count)
system.cpu.commit.committedInstType_0::SimdStridedStore            0      0.00%    100.00% # Class of committed instruction (Count)
system.cpu.commit.committedInstType_0::SimdIndexedLoad            0      0.00%    100.00% # Class of committed instruction (Count)
system.cpu.commit.committedInstType_0::SimdIndexedStore            0      0.00%    100.00% # Class of committed instruction (Count)
system.cpu.commit.committedInstType_0::SimdWholeRegisterLoad            0      0.00%    100.00% # Class of committed instruction (Count)
system.cpu.commit.committedInstType_0::SimdWholeRegisterStore            0      0.00%    100.00% # Class of committed instruction (Count)
system.cpu.commit.committedInstType_0::SimdUnitStrideFaultOnlyFirstLoad            0      0.00%    100.00% # Class of committed instruction (Count)
system.cpu.commit.committedInstType_0::SimdUnitStrideSegmentedLoad            0      0.00%    100.00% # Class of committed instruction (Count)
system.cpu.commit.committedInstType_0::SimdUnitStrideSegmentedStore            0      0.00%    100.00% # Class of committed instruction (Count)
system.cpu.commit.committedInstType_0::SimdUnitStrideSegmentedFaultOnlyFirstLoad            0      0.00%    100.00% # Class of committed instruction (Count)
system.cpu.commit.committedInstType_0::SimdStrideSegmentedLoad            0      0.00%    100.00% # Class of committed instruction (Count)
system.cpu.commit.committedInstType_0::SimdStrideSegmentedStore            0      0.00%    100.00% # Class of committed instruction (Count)
system.cpu.commit.committedInstType_0::SimdExt            0      0.00%    100.00% # Class of committed instruction (Count)
system.cpu.commit.committedInstType_0::SimdFloatExt            0      0.00%    100.00% # Class of committed instruction (Count)
system.cpu.commit.committedInstType_0::SimdConfig            0      0.00%    100.00% # Class of committed instruction (Count)
system.cpu.commit.committedInstType_0::SimdBf16Cvt            0      0.00%    100.00% # Class of committed instruction (Count)
system.cpu.commit.committedInstType_0::SimdBf16DotProd            0      0.00%    100.00% # Class of committed instruction (Count)
system.cpu.commit.committedInstType_0::SimdBf16MatMultAcc            0      0.00%    100.00% # Class of committed instruction (Count)
system.cpu.commit.committedInstType_0::SimdBf16MultAcc            0      0.00%    100.00% # Class of committed instruction (Count)
system.cpu.commit.committedInstType_0::Bf16Cvt            0      0.00%    100.00% # Class of committed instruction (Count)
system.cpu.commit.committedInstType_0::total     24597402                       # Class of committed instruction (Count)
system.cpu.commit.commitEligibleSamples       1506180                       # number cycles where commit BW limit reached (Cycle)
system.cpu.commitStats0.numInsts             12745869                       # Number of instructions committed (thread level) (Count)
system.cpu.commitStats0.numOps               24597402                       # Number of ops (including micro ops) committed (thread level) (Count)
system.cpu.commitStats0.numInstsNotNOP       12745869                       # Number of instructions committed excluding NOPs or prefetches (Count)
system.cpu.commitStats0.numOpsNotNOP         24597402                       # Number of Ops (including micro ops) Simulated (Count)
system.cpu.commitStats0.numUserInsts         12745869                       # Numbrer of instructions committed in user mode (Count)
system.cpu.commitStats0.numUserOps           24597402                       # Number of ops committed in user mode (Count)
system.cpu.commitStats0.ratioUserInsts              1                       # Ratio of instructions committed in user mode (Ratio)
system.cpu.commitStats0.ratioUserOps                1                       # Ratio of ops committed in user mode (Ratio)
system.cpu.commitStats0.cpi                  0.609588                       # CPI: cycles per instruction (thread level) ((Cycle/Count))
system.cpu.commitStats0.ipc                  1.640452                       # IPC: instructions per cycle (thread level) ((Count/Cycle))
system.cpu.commitStats0.numMemRefs            3887316                       # Number of memory references committed (Count)
system.cpu.commitStats0.numFpInsts            1022248                       # Number of float instructions (Count)
system.cpu.commitStats0.numIntInsts          23597394                       # Number of integer instructions (Count)
system.cpu.commitStats0.numLoadInsts          2531254                       # Number of load instructions (Count)
system.cpu.commitStats0.numStoreInsts         1356062                       # Number of store instructions (Count)
system.cpu.commitStats0.numVecInsts                 0                       # Number of vector instructions (Count)
system.cpu.commitStats0.committedInstType::No_OpClass       303929      1.24%      1.24% # Class of committed instruction. (Count)
[...]
system.mem_ctrl.requestorReadAvgLat::cpu.data     49223.03                       # Per-requestor read average memory access latency ((Tick/Count))
system.mem_ctrl.requestorReadAvgLat::l2cache.prefetcher     54497.05                       # Per-requestor read average memory access latency ((Tick/Count))
system.mem_ctrl.requestorWriteAvgLat::writebacks 113586582.96                       # Per-requestor write average memory access latency ((Tick/Count))
system.mem_ctrl.dram.bytesRead::cpu.inst       111552                       # Number of bytes read from this memory (Byte)
system.mem_ctrl.dram.bytesRead::cpu.data        81344                       # Number of bytes read from this memory (Byte)
system.mem_ctrl.dram.bytesRead::l2cache.prefetcher       106688                       # Number of bytes read from this memory (Byte)
system.mem_ctrl.dram.bytesRead::total          299584                       # Number of bytes read from this memory (Byte)
system.mem_ctrl.dram.bytesInstRead::cpu.inst       111552                       # Number of instructions bytes read from this memory (Byte)
system.mem_ctrl.dram.bytesInstRead::total       111552                       # Number of instructions bytes read from this memory (Byte)
system.mem_ctrl.dram.bytesWritten::writebacks        11200                       # Number of bytes written to this memory (Byte)
system.mem_ctrl.dram.bytesWritten::total        11200                       # Number of bytes written to this memory (Byte)
system.mem_ctrl.dram.numReads::cpu.inst          1743                       # Number of read requests responded to by this memory (Count)
system.mem_ctrl.dram.numReads::cpu.data          1271                       # Number of read requests responded to by this memory (Count)
system.mem_ctrl.dram.numReads::l2cache.prefetcher         1667                       # Number of read requests responded to by this memory (Count)
system.mem_ctrl.dram.numReads::total             4681                       # Number of read requests responded to by this memory (Count)
system.mem_ctrl.dram.numWrites::writebacks          175                       # Number of write requests responded to by this memory (Count)
system.mem_ctrl.dram.numWrites::total             175                       # Number of write requests responded to by this memory (Count)
system.mem_ctrl.dram.bwRead::cpu.inst        57429045                       # Total read bandwidth from this memory ((Byte/Second))
system.mem_ctrl.dram.bwRead::cpu.data        41877404                       # Total read bandwidth from this memory ((Byte/Second))
system.mem_ctrl.dram.bwRead::l2cache.prefetcher     54924967                       # Total read bandwidth from this memory ((Byte/Second))
system.mem_ctrl.dram.bwRead::total          154231416                       # Total read bandwidth from this memory ((Byte/Second))
system.mem_ctrl.dram.bwInstRead::cpu.inst     57429045                       # Instruction read bandwidth from this memory ((Byte/Second))
system.mem_ctrl.dram.bwInstRead::total       57429045                       # Instruction read bandwidth from this memory ((Byte/Second))
system.mem_ctrl.dram.bwWrite::writebacks      5765968                       # Write bandwidth from this memory ((Byte/Second))
system.mem_ctrl.dram.bwWrite::total           5765968                       # Write bandwidth from this memory ((Byte/Second))
system.mem_ctrl.dram.bwTotal::writebacks      5765968                       # Total bandwidth to/from this memory ((Byte/Second))
system.mem_ctrl.dram.bwTotal::cpu.inst       57429045                       # Total bandwidth to/from this memory ((Byte/Second))
system.mem_ctrl.dram.bwTotal::cpu.data       41877404                       # Total bandwidth to/from this memory ((Byte/Second))
system.mem_ctrl.dram.bwTotal::l2cache.prefetcher     54924967                       # Total bandwidth to/from this memory ((Byte/Second))
system.mem_ctrl.dram.bwTotal::total         159997385                       # Total bandwidth to/from this memory ((Byte/Second))
system.mem_ctrl.dram.readBursts                  9362                       # Number of DRAM read bursts (Count)
system.mem_ctrl.dram.writeBursts                  333                       # Number of DRAM write bursts (Count)
system.mem_ctrl.dram.perBankRdBursts::0           682                       # Per bank write bursts (Count)
system.mem_ctrl.dram.perBankRdBursts::1           576                       # Per bank write bursts (Count)
system.mem_ctrl.dram.perBankRdBursts::2           604                       # Per bank write bursts (Count)
system.mem_ctrl.dram.perBankRdBursts::3           488                       # Per bank write bursts (Count)
system.mem_ctrl.dram.perBankRdBursts::4           594                       # Per bank write bursts (Count)
system.mem_ctrl.dram.perBankRdBursts::5           634                       # Per bank write bursts (Count)
system.mem_ctrl.dram.perBankRdBursts::6           532                       # Per bank write bursts (Count)
system.mem_ctrl.dram.perBankRdBursts::7           612                       # Per bank write bursts (Count)
system.mem_ctrl.dram.perBankRdBursts::8           612                       # Per bank write bursts (Count)
system.mem_ctrl.dram.perBankRdBursts::9           678                       # Per bank write bursts (Count)
system.mem_ctrl.dram.perBankRdBursts::10          644                       # Per bank write bursts (Count)
system.mem_ctrl.dram.perBankRdBursts::11          622                       # Per bank write bursts (Count)
system.mem_ctrl.dram.perBankRdBursts::12          542                       # Per bank write bursts (Count)
system.mem_ctrl.dram.perBankRdBursts::13          532                       # Per bank write bursts (Count)
system.mem_ctrl.dram.perBankRdBursts::14          504                       # Per bank write bursts (Count)
system.mem_ctrl.dram.perBankRdBursts::15          506                       # Per bank write bursts (Count)
system.mem_ctrl.dram.perBankWrBursts::0            26                       # Per bank write bursts (Count)
system.mem_ctrl.dram.perBankWrBursts::1            20                       # Per bank write bursts (Count)
system.mem_ctrl.dram.perBankWrBursts::2            16                       # Per bank write bursts (Count)
system.mem_ctrl.dram.perBankWrBursts::3             0                       # Per bank write bursts (Count)
system.mem_ctrl.dram.perBankWrBursts::4             2                       # Per bank write bursts (Count)
system.mem_ctrl.dram.perBankWrBursts::5             6                       # Per bank write bursts (Count)
system.mem_ctrl.dram.perBankWrBursts::6             4                       # Per bank write bursts (Count)
system.mem_ctrl.dram.perBankWrBursts::7            28                       # Per bank write bursts (Count)
system.mem_ctrl.dram.perBankWrBursts::8            20                       # Per bank write bursts (Count)
system.mem_ctrl.dram.perBankWrBursts::9            54                       # Per bank write bursts (Count)
system.mem_ctrl.dram.perBankWrBursts::10           52                       # Per bank write bursts (Count)
system.mem_ctrl.dram.perBankWrBursts::11           36                       # Per bank write bursts (Count)
system.mem_ctrl.dram.perBankWrBursts::12            7                       # Per bank write bursts (Count)
system.mem_ctrl.dram.perBankWrBursts::13           12                       # Per bank write bursts (Count)
system.mem_ctrl.dram.perBankWrBursts::14           20                       # Per bank write bursts (Count)
system.mem_ctrl.dram.perBankWrBursts::15           30                       # Per bank write bursts (Count)
system.mem_ctrl.dram.totQLat                262374136                       # Total ticks spent queuing (Tick)
system.mem_ctrl.dram.totBusLat               18724000                       # Total ticks spent in databus transfers (Tick)
system.mem_ctrl.dram.totMemAccLat           449614136                       # Total ticks spent from burst creation until serviced by the DRAM (Tick)
system.mem_ctrl.dram.avgQLat                 28025.44                       # Average queueing delay per DRAM burst ((Tick/Count))
system.mem_ctrl.dram.avgBusLat                2000.00                       # Average bus latency per DRAM burst ((Tick/Count))
system.mem_ctrl.dram.avgMemAccLat            48025.44                       # Average memory access latency per DRAM burst ((Tick/Count))
system.mem_ctrl.dram.readRowHits                 5041                       # Number of row buffer hits during reads (Count)
system.mem_ctrl.dram.writeRowHits                 230                       # Number of row buffer hits during writes (Count)
system.mem_ctrl.dram.readRowHitRate             53.85                       # Row buffer hit rate for reads (Ratio)
system.mem_ctrl.dram.writeRowHitRate            69.07                       # Row buffer hit rate for writes (Ratio)
system.mem_ctrl.dram.bytesPerActivate::samples         4422                       # Bytes accessed per row activation (Byte)
system.mem_ctrl.dram.bytesPerActivate::mean    70.122117                       # Bytes accessed per row activation (Byte)
system.mem_ctrl.dram.bytesPerActivate::gmean    67.011826                       # Bytes accessed per row activation (Byte)
system.mem_ctrl.dram.bytesPerActivate::stdev    33.792447                       # Bytes accessed per row activation (Byte)
system.mem_ctrl.dram.bytesPerActivate::32-63           20      0.45%      0.45% # Bytes accessed per row activation (Byte)
system.mem_ctrl.dram.bytesPerActivate::64-95         4190     94.75%     95.21% # Bytes accessed per row activation (Byte)
system.mem_ctrl.dram.bytesPerActivate::96-127           13      0.29%     95.50% # Bytes accessed per row activation (Byte)
system.mem_ctrl.dram.bytesPerActivate::128-159           93      2.10%     97.60% # Bytes accessed per row activation (Byte)
system.mem_ctrl.dram.bytesPerActivate::160-191            2      0.05%     97.65% # Bytes accessed per row activation (Byte)
system.mem_ctrl.dram.bytesPerActivate::192-223           27      0.61%     98.26% # Bytes accessed per row activation (Byte)
system.mem_ctrl.dram.bytesPerActivate::224-255            3      0.07%     98.33% # Bytes accessed per row activation (Byte)
system.mem_ctrl.dram.bytesPerActivate::256-287           43      0.97%     99.30% # Bytes accessed per row activation (Byte)
system.mem_ctrl.dram.bytesPerActivate::288-319            1      0.02%     99.32% # Bytes accessed per row activation (Byte)
system.mem_ctrl.dram.bytesPerActivate::320-351           20      0.45%     99.77% # Bytes accessed per row activation (Byte)
system.mem_ctrl.dram.bytesPerActivate::384-415            3      0.07%     99.84% # Bytes accessed per row activation (Byte)
system.mem_ctrl.dram.bytesPerActivate::416-447            1      0.02%     99.86% # Bytes accessed per row activation (Byte)
system.mem_ctrl.dram.bytesPerActivate::448-479            6      0.14%    100.00% # Bytes accessed per row activation (Byte)
system.mem_ctrl.dram.bytesPerActivate::total         4422                       # Bytes accessed per row activation (Byte)
system.mem_ctrl.dram.dramBytesRead             299584                       # Total bytes read (Byte)
system.mem_ctrl.dram.dramBytesWritten           10656                       # Total bytes written (Byte)
system.mem_ctrl.dram.avgRdBW               154.231416                       # Average DRAM read bandwidth in MiBytes/s ((Byte/Second))
system.mem_ctrl.dram.avgWrBW                 5.485907                       # Average DRAM write bandwidth in MiBytes/s ((Byte/Second))
system.mem_ctrl.dram.peakBW                  16000.00                       # Theoretical peak bandwidth in MiByte/s ((Byte/Second))
system.mem_ctrl.dram.busUtil                     1.00                       # Data bus utilization in percentage (Ratio)
system.mem_ctrl.dram.busUtilRead                 0.96                       # Data bus utilization in percentage for reads (Ratio)
system.mem_ctrl.dram.busUtilWrite                0.03                       # Data bus utilization in percentage for writes (Ratio)
system.mem_ctrl.dram.pageHitRate                54.37                       # Row buffer hit rate, read and write combined (Ratio)
system.mem_ctrl.dram.power_state.pwrStateResidencyTicks::UNDEFINED   1942431750                       # Cumulative time (in ticks) in various power states (Tick)
system.mem_ctrl.dram.rank0.actEnergy                0                       # Energy for activate commands per rank (pJ) (Joule)
system.mem_ctrl.dram.rank0.preEnergy                0                       # Energy for precharge commands per rank (pJ) (Joule)
system.mem_ctrl.dram.rank0.readEnergy               0                       # Energy for read commands per rank (pJ) (Joule)
system.mem_ctrl.dram.rank0.writeEnergy              0                       # Energy for write commands per rank (pJ) (Joule)
system.mem_ctrl.dram.rank0.refreshEnergy            0                       # Energy for refresh commands per rank (pJ) (Joule)
system.mem_ctrl.dram.rank0.actBackEnergy            0                       # Energy for active background per rank (pJ) (Joule)
system.mem_ctrl.dram.rank0.preBackEnergy            0                       # Energy for precharge background per rank (pJ) (Joule)
system.mem_ctrl.dram.rank0.actPowerDownEnergy            0                       # Energy for active power-down per rank (pJ) (Joule)
system.mem_ctrl.dram.rank0.prePowerDownEnergy            0                       # Energy for precharge power-down per rank (pJ) (Joule)
system.mem_ctrl.dram.rank0.selfRefreshEnergy            0                       # Energy for self refresh per rank (pJ) (Joule)
system.mem_ctrl.dram.rank0.totalEnergy              0                       # Total energy per rank (pJ) (Joule)
system.mem_ctrl.dram.rank0.averagePower             0                       # Core power per rank (mW) (Watt)
system.mem_ctrl.dram.rank0.totalIdleTime            0                       # Total Idle time Per DRAM Rank (Tick)
system.mem_ctrl.dram.rank0.pwrStateTime::IDLE   1652091800                       # Time in different power states (Tick)
system.mem_ctrl.dram.rank0.pwrStateTime::REF    109780000                       # Time in different power states (Tick)
system.mem_ctrl.dram.rank0.pwrStateTime::SREF            0                       # Time in different power states (Tick)
system.mem_ctrl.dram.rank0.pwrStateTime::PRE_PDN            0                       # Time in different power states (Tick)
system.mem_ctrl.dram.rank0.pwrStateTime::ACT    180559950                       # Time in different power states (Tick)
system.mem_ctrl.dram.rank0.pwrStateTime::ACT_PDN            0                       # Time in different power states (Tick)
system.mem_ctrl.power_state.pwrStateResidencyTicks::UNDEFINED   1942431750                       # Cumulative time (in ticks) in various power states (Tick)
system.membus.transDist::ReadResp                4429                       # Transaction distribution (Count)
system.membus.transDist::WritebackDirty           175                       # Transaction distribution (Count)
system.membus.transDist::CleanEvict               572                       # Transaction distribution (Count)
system.membus.transDist::ReadExReq                252                       # Transaction distribution (Count)
system.membus.transDist::ReadExResp               252                       # Transaction distribution (Count)
system.membus.transDist::ReadSharedReq           4429                       # Transaction distribution (Count)
system.membus.pktCount_system.l2cache.mem_side_port::system.mem_ctrl.port        10109                       # Packet count per connected requestor and responder (Count)
system.membus.pktCount_system.l2cache.mem_side_port::total        10109                       # Packet count per connected requestor and responder (Count)
system.membus.pktCount::total                   10109                       # Packet count per connected requestor and responder (Count)
system.membus.pktSize_system.l2cache.mem_side_port::system.mem_ctrl.port       310784                       # Cumulative packet size per connected requestor and responder (Byte)
system.membus.pktSize_system.l2cache.mem_side_port::total       310784                       # Cumulative packet size per connected requestor and responder (Byte)
system.membus.pktSize::total                   310784                       # Cumulative packet size per connected requestor and responder (Byte)
system.membus.snoops                                0                       # Total snoops (Count)
system.membus.snoopTraffic                          0                       # Total snoop traffic (Byte)
system.membus.snoopFanout::samples               4681                       # Request fanout histogram (Count)
system.membus.snoopFanout::mean                     0                       # Request fanout histogram (Count)
system.membus.snoopFanout::stdev                    0                       # Request fanout histogram (Count)
system.membus.snoopFanout::underflows               0      0.00%      0.00% # Request fanout histogram (Count)
system.membus.snoopFanout::0                     4681    100.00%    100.00% # Request fanout histogram (Count)
system.membus.snoopFanout::1                        0      0.00%    100.00% # Request fanout histogram (Count)
system.membus.snoopFanout::overflows                0      0.00%    100.00% # Request fanout histogram (Count)
system.membus.snoopFanout::min_value                0                       # Request fanout histogram (Count)
system.membus.snoopFanout::max_value                0                       # Request fanout histogram (Count)
system.membus.snoopFanout::total                 4681                       # Request fanout histogram (Count)
system.membus.power_state.pwrStateResidencyTicks::UNDEFINED   1942431750                       # Cumulative time (in ticks) in various power states (Tick)
system.membus.reqLayer0.occupancy             1844617                       # Layer occupancy (ticks) (Tick)
system.membus.reqLayer0.utilization               0.0                       # Layer utilization (Ratio)
system.membus.respLayer0.occupancy            5912682                       # Layer occupancy (ticks) (Tick)
system.membus.respLayer0.utilization              0.0                       # Layer utilization (Ratio)
system.membus.snoop_filter.totRequests           5428                       # Total number of requests made to the snoop filter. (Count)
system.membus.snoop_filter.hitSingleRequests          747                       # Number of requests hitting in the snoop filter with a single holder of the requested data. (Count)
system.membus.snoop_filter.hitMultiRequests            0                       # Number of requests hitting in the snoop filter with multiple (>1) holders of the requested data. (Count)
system.membus.snoop_filter.totSnoops                0                       # Total number of snoops made to the snoop filter. (Count)
system.membus.snoop_filter.hitSingleSnoops            0                       # Number of snoops hitting in the snoop filter with a single holder of the requested data. (Count)
system.membus.snoop_filter.hitMultiSnoops            0                       # Number of snoops hitting in the snoop filter with multiple (>1) holders of the requested data. (Count)
system.workload.inst.arm                            0                       # number of arm instructions executed (Count)
system.workload.inst.quiesce                        0                       # number of quiesce instructions executed (Count)

---------- End Simulation Statistics   ----------
