
---------- Begin Simulation Statistics ----------
simSeconds                                   0.000196                       # Number of seconds simulated (Second)
simTicks                                    195694250                       # Number of ticks simulated (Tick)
finalTick                                   195694250                       # Number of ticks from beginning of simulation (restored from checkpoints and never reset) (Tick)
simFreq                                  1000000000000                       # The number of ticks per simulated second ((Tick/Second))
hostSeconds                                      4.12                       # Real time elapsed on the host (Second)
hostTickRate                                 47446321                       # The number of ticks simulated per host second (ticks/s) ((Tick/Second))
hostMemory                                     804672                       # Number of bytes of host memory used (Byte)
simInsts                                       363317                       # Number of instructions simulated (Count)
simOps                                         718647                       # Number of ops (including micro ops) simulated (Count)
hostInstRate                                    88083                       # Simulator instruction rate (inst/s) ((Count/Second))
hostOpRate                                     174228                       # Simulator op (including micro ops) rate (op/s) ((Count/Second))
system.clk_domain.clock                           250                       # Clock period in ticks (Tick)
system.clk_domain.voltage_domain.voltage            1                       # Voltage in Volts (Volt)
system.cpu.numCycles                           782778                       # Number of cpu cycles simulated (Cycle)
system.cpu.cpi                               2.154532                       # CPI: cycles per instruction (core level) ((Cycle/Count))
system.cpu.ipc                               0.464138                       # IPC: instructions per cycle (core level) ((Count/Cycle))
system.cpu.numWorkItemsStarted                      0                       # Number of work items this cpu started (Count)
system.cpu.numWorkItemsCompleted                    0                       # Number of work items this cpu completed (Count)
system.cpu.instsAdded                          878799                       # Number of instructions added to the IQ (excludes non-spec) (Count)
system.cpu.nonSpecInstsAdded                       60                       # Number of non-speculative instructions added to the IQ (Count)
system.cpu.instsIssued                         830760                       # Number of instructions issued (Count)
system.cpu.squashedInstsIssued                   2850                       # Number of squashed instructions issued (Count)
system.cpu.squashedInstsExamined               160206                       # Number of squashed instructions iterated over during squash; mainly for profiling (Count)
system.cpu.squashedOperandsExamined            257263                       # Number of squashed operands that are examined and possibly removed from graph (Count)
system.cpu.squashedNonSpecRemoved                  24                       # Number of squashed non-spec instructions that were removed (Count)
system.cpu.numIssuedDist::samples              522415                       # Number of insts issued each cycle (Count)
system.cpu.numIssuedDist::mean               1.590230                       # Number of insts issued each cycle (Count)
system.cpu.numIssuedDist::stdev              2.647940                       # Number of insts issued each cycle (Count)
system.cpu.numIssuedDist::underflows                0      0.00%      0.00% # Number of insts issued each cycle (Count)
system.cpu.numIssuedDist::0                    347685     66.55%     66.55% # Number of insts issued each cycle (Count)
system.cpu.numIssuedDist::1                     27915      5.34%     71.90% # Number of insts issued each cycle (Count)
system.cpu.numIssuedDist::2                     17766      3.40%     75.30% # Number of insts issued each cycle (Count)
system.cpu.numIssuedDist::3                     14338      2.74%     78.04% # Number of insts issued each cycle (Count)
system.cpu.numIssuedDist::4                     14165      2.71%     80.75% # Number of insts issued each cycle (Count)
system.cpu.numIssuedDist::5                     12754      2.44%     83.19% # Number of insts issued each cycle (Count)
system.cpu.numIssuedDist::6                     34428      6.59%     89.79% # Number of insts issued each cycle (Count)
system.cpu.numIssuedDist::7                     29611      5.67%     95.45% # Number of insts issued each cycle (Count)
system.cpu.numIssuedDist::8                     23753      4.55%    100.00% # Number of insts issued each cycle (Count)
system.cpu.numIssuedDist::overflows                 0      0.00%    100.00% # Number of insts issued each cycle (Count)
system.cpu.numIssuedDist::min_value                 0                       # Number of insts issued each cycle (Count)
system.cpu.numIssuedDist::max_value                 8                       # Number of insts issued each cycle (Count)
system.cpu.numIssuedDist::total                522415                       # Number of insts issued each cycle (Count)
system.cpu.statFuBusy::No_OpClass                   0      0.00%      0.00% # attempts to use FU when none available (Count)
system.cpu.statFuBusy::IntAlu                   48311     96.48%     96.48% # attempts to use FU when none available (Count)
system.cpu.statFuBusy::IntMult                      0      0.00%     96.48% # attempts to use FU when none available (Count)
system.cpu.statFuBusy::IntDiv                       0      0.00%     96.48% # attempts to use FU when none available (Count)
system.cpu.statFuBusy::FloatAdd                     0      0.00%     96.48% # attempts to use FU when none available (Count)
system.cpu.statFuBusy::FloatCmp                     0      0.00%     96.48% # attempts to use FU when none available (Count)
system.cpu.statFuBusy::FloatCvt                     0      0.00%     96.48% # attempts to use FU when none available (Count)
system.cpu.statFuBusy::FloatMult                    0      0.00%     96.48% # attempts to use FU when none available (Count)
system.cpu.statFuBusy::FloatMultAcc                 0      0.00%     96.48% # attempts to use FU when none available (Count)
system.cpu.statFuBusy::FloatDiv                     0      0.00%     96.48% # attempts to use FU when none available (Count)
system.cpu.statFuBusy::FloatMisc                    0      0.00%     96.48% # attempts to use FU when none available (Count)
system.cpu.statFuBusy::FloatSqrt                    0      0.00%     96.48% # attempts to use FU when none available (Count)
system.cpu.statFuBusy::SimdAdd                      0      0.00%     96.48% # attempts to use FU when none available (Count)
system.cpu.statFuBusy::SimdAddAcc                   0      0.00%     96.48% # attempts to use FU when none available (Count)
system.cpu.statFuBusy::SimdAlu                     16      0.03%     96.51% # attempts to use FU when none available (Count)
system.cpu.statFuBusy::SimdCmp                      0      0.00%     96.51% # attempts to use FU when none available (Count)
system.cpu.statFuBusy::SimdCvt                      9      0.02%     96.53% # attempts to use FU when none available (Count)
system.cpu.statFuBusy::SimdMisc                     2      0.00%     96.53% # attempts to use FU when none available (Count)
system.cpu.statFuBusy::SimdMult                     0      0.00%     96.53% # attempts to use FU when none available (Count)
system.cpu.statFuBusy::SimdMultAcc                  0      0.00%     96.53% # attempts to use FU when none available (Count)
system.cpu.statFuBusy::SimdMatMultAcc               0      0.00%     96.53% # attempts to use FU when none available (Count)
system.cpu.statFuBusy::SimdShift                   13      0.03%     96.56% # attempts to use FU when none available (Count)
system.cpu.statFuBusy::SimdShiftAcc                 0      0.00%     96.56% # attempts to use FU when none available (Count)
system.cpu.statFuBusy::SimdDiv                      0      0.00%     96.56% # attempts to use FU when none available (Count)
system.cpu.statFuBusy::SimdSqrt                     0      0.00%     96.56% # attempts to use FU when none available (Count)
system.cpu.statFuBusy::SimdFloatAdd                 0      0.00%     96.56% # attempts to use FU when none available (Count)
system.cpu.statFuBusy::SimdFloatAlu                 0      0.00%     96.56% # attempts to use FU when none available (Count)
system.cpu.statFuBusy::SimdFloatCmp                 0      0.00%     96.56% # attempts to use FU when none available (Count)
system.cpu.statFuBusy::SimdFloatCvt                 0      0.00%     96.56% # attempts to use FU when none available (Count)
system.cpu.statFuBusy::SimdFloatDiv                 0      0.00%     96.56% # attempts to use FU when none available (Count)
system.cpu.statFuBusy::SimdFloatMisc                0      0.00%     96.56% # attempts to use FU when none available (Count)
system.cpu.statFuBusy::SimdFloatMult                0      0.00%     96.56% # attempts to use FU when none available (Count)
system.cpu.statFuBusy::SimdFloatMultAcc             0      0.00%     96.56% # attempts to use FU when none available (Count)
system.cpu.statFuBusy::SimdFloatMatMultAcc            0      0.00%     96.56% # attempts to use FU when none available (Count)
system.cpu.statFuBusy::SimdFloatSqrt                0      0.00%     96.56% # attempts to use FU when none available (Count)
system.cpu.statFuBusy::SimdReduceAdd                0      0.00%     96.56% # attempts to use FU when none available (Count)
system.cpu.statFuBusy::SimdReduceAlu                0      0.00%     96.56% # attempts to use FU when none available (Count)
system.cpu.statFuBusy::SimdReduceCmp                0      0.00%     96.56% # attempts to use FU when none available (Count)
system.cpu.statFuBusy::SimdFloatReduceAdd            0      0.00%     96.56% # attempts to use FU when none available (Count)
system.cpu.statFuBusy::SimdFloatReduceCmp            0      0.00%     96.56% # attempts to use FU when none available (Count)
system.cpu.statFuBusy::SimdAes                      0      0.00%     96.56% # attempts to use FU when none available (Count)
system.cpu.statFuBusy::SimdAesMix                   0      0.00%     96.56% # attempts to use FU when none available (Count)
system.cpu.statFuBusy::SimdSha1Hash                 0      0.00%     96.56% # attempts to use FU when none available (Count)
system.cpu.statFuBusy::SimdSha1Hash2                0      0.00%     96.56% # attempts to use FU when none available (Count)
system.cpu.statFuBusy::SimdSha256Hash               0      0.00%     96.56% # attempts to use FU when none available (Count)
system.cpu.statFuBusy::SimdSha256Hash2              0      0.00%     96.56% # attempts to use FU when none available (Count)
system.cpu.statFuBusy::SimdShaSigma2                0      0.00%     96.56% # attempts to use FU when none available (Count)
system.cpu.statFuBusy::SimdShaSigma3                0      0.00%     96.56% # attempts to use FU when none available (Count)
system.cpu.statFuBusy::SimdPredAlu                  0      0.00%     96.56% # attempts to use FU when none available (Count)
system.cpu.statFuBusy::Matrix                       0      0.00%     96.56% # attempts to use FU when none available (Count)
system.cpu.statFuBusy::MatrixMov                    0      0.00%     96.56% # attempts to use FU when none available (Count)
system.cpu.statFuBusy::MatrixOP                     0      0.00%     96.56% # attempts to use FU when none available (Count)
system.cpu.statFuBusy::MemRead                    746      1.49%     98.05% # attempts to use FU when none available (Count)
system.cpu.statFuBusy::MemWrite                   440      0.88%     98.93% # attempts to use FU when none available (Count)
system.cpu.statFuBusy::FloatMemRead               444      0.89%     99.81% # attempts to use FU when none available (Count)
system.cpu.statFuBusy::FloatMemWrite               93      0.19%    100.00% # attempts to use FU when none available (Count)
system.cpu.statFuBusy::IprAccess                    0      0.00%    100.00% # attempts to use FU when none available (Count)
system.cpu.statFuBusy::InstPrefetch                 0      0.00%    100.00% # attempts to use FU when none available (Count)
system.cpu.statFuBusy::SimdUnitStrideLoad            0      0.00%    100.00% # attempts to use FU when none available (Count)
system.cpu.statFuBusy::SimdUnitStrideStore            0      0.00%    100.00% # attempts to use FU when none available (Count)
system.cpu.statFuBusy::SimdUnitStrideMaskLoad            0      0.00%    100.00% # attempts to use FU when none available (Count)
system.cpu.statFuBusy::SimdUnitStrideMaskStore            0      0.00%    100.00% # attempts to use FU when none available (Count)
system.cpu.statFuBusy::SimdStridedLoad              0      0.00%    100.00% # attempts to use FU when none available (Count)
system.cpu.statFuBusy::SimdStridedStore             0      0.00%    100.00% # attempts to use FU when none available (Count)
system.cpu.statFuBusy::SimdIndexedLoad              0      0.00%    100.00% # attempts to use FU when none available (Count)
system.cpu.statFuBusy::SimdIndexedStore             0      0.00%    100.00% # attempts to use FU when none available (Count)
system.cpu.statFuBusy::SimdWholeRegisterLoad            0      0.00%    100.00% # attempts to use FU when none available (Count)
system.cpu.statFuBusy::SimdWholeRegisterStore            0      0.00%    100.00% # attempts to use FU when none available (Count)
system.cpu.statFuBusy::SimdUnitStrideFaultOnlyFirstLoad            0      0.00%    100.00% # attempts to use FU when none available (Count)
system.cpu.statFuBusy::SimdUnitStrideSegmentedLoad            0      0.00%    100.00% # attempts to use FU when none available (Count)
system.cpu.statFuBusy::SimdUnitStrideSegmentedStore            0      0.00%    100.00% # attempts to use FU when none available (Count)
system.cpu.statFuBusy::SimdUnitStrideSegmentedFaultOnlyFirstLoad            0      0.00%    100.00% # attempts to use FU when none available (Count)
system.cpu.statFuBusy::SimdStrideSegmentedLoad            0      0.00%    100.00% # attempts to use FU when none available (Count)
system.cpu.statFuBusy::SimdStrideSegmentedStore            0      0.00%    100.00% # attempts to use FU when none available (Count)
system.cpu.statFuBusy::SimdExt                      0      0.00%    100.00% # attempts to use FU when none available (Count)
system.cpu.statFuBusy::SimdFloatExt                 0      0.00%    100.00% # attempts to use FU when none available (Count)
system.cpu.statFuBusy::SimdConfig                   0      0.00%    100.00% # attempts to use FU when none available (Count)
system.cpu.statFuBusy::SimdBf16Cvt                  0      0.00%    100.00% # attempts to use FU when none available (Count)
system.cpu.statFuBusy::SimdBf16DotProd              0      0.00%    100.00% # attempts to use FU when none available (Count)
system.cpu.statFuBusy::SimdBf16MatMultAcc            0      0.00%    100.00% # attempts to use FU when none available (Count)
system.cpu.statFuBusy::SimdBf16MultAcc              0      0.00%    100.00% # attempts to use FU when none available (Count)
system.cpu.statFuBusy::Bf16Cvt                      0      0.00%    100.00% # attempts to use FU when none available (Count)
system.cpu.issuedInstType_0::No_OpClass          4575      0.55%      0.55% # Number of instructions issued per FU type, per thread (Count)
system.cpu.issuedInstType_0::IntAlu            665049     80.05%     80.60% # Number of instructions issued per FU type, per thread (Count)
system.cpu.issuedInstType_0::IntMult              827      0.10%     80.70% # Number of instructions issued per FU type, per thread (Count)
system.cpu.issuedInstType_0::IntDiv              1819      0.22%     80.92% # Number of instructions issued per FU type, per thread (Count)
system.cpu.issuedInstType_0::FloatAdd            1206      0.15%     81.07% # Number of instructions issued per FU type, per thread (Count)
system.cpu.issuedInstType_0::FloatCmp               0      0.00%     81.07% # Number of instructions issued per FU type, per thread (Count)
system.cpu.issuedInstType_0::FloatCvt               0      0.00%     81.07% # Number of instructions issued per FU type, per thread (Count)
system.cpu.issuedInstType_0::FloatMult              0      0.00%     81.07% # Number of instructions issued per FU type, per thread (Count)
system.cpu.issuedInstType_0::FloatMultAcc            0      0.00%     81.07% # Number of instructions issued per FU type, per thread (Count)
system.cpu.issuedInstType_0::FloatDiv               0      0.00%     81.07% # Number of instructions issued per FU type, per thread (Count)
system.cpu.issuedInstType_0::FloatMisc              0      0.00%     81.07% # Number of instructions issued per FU type, per thread (Count)
system.cpu.issuedInstType_0::FloatSqrt              0      0.00%     81.07% # Number of instructions issued per FU type, per thread (Count)
system.cpu.issuedInstType_0::SimdAdd              659      0.08%     81.15% # Number of instructions issued per FU type, per thread (Count)
system.cpu.issuedInstType_0::SimdAddAcc             0      0.00%     81.15% # Number of instructions issued per FU type, per thread (Count)
system.cpu.issuedInstType_0::SimdAlu             1988      0.24%     81.39% # Number of instructions issued per FU type, per thread (Count)
system.cpu.issuedInstType_0::SimdCmp                2      0.00%     81.39% # Number of instructions issued per FU type, per thread (Count)
system.cpu.issuedInstType_0::SimdCvt             1622      0.20%     81.58% # Number of instructions issued per FU type, per thread (Count)
system.cpu.issuedInstType_0::SimdMisc            5425      0.65%     82.23% # Number of instructions issued per FU type, per thread (Count)
system.cpu.issuedInstType_0::SimdMult               0      0.00%     82.23% # Number of instructions issued per FU type, per thread (Count)
system.cpu.issuedInstType_0::SimdMultAcc            0      0.00%     82.23% # Number of instructions issued per FU type, per thread (Count)
system.cpu.issuedInstType_0::SimdMatMultAcc            0      0.00%     82.23% # Number of instructions issued per FU type, per thread (Count)
system.cpu.issuedInstType_0::SimdShift            631      0.08%     82.31% # Number of instructions issued per FU type, per thread (Count)
system.cpu.issuedInstType_0::SimdShiftAcc            0      0.00%     82.31% # Number of instructions issued per FU type, per thread (Count)
system.cpu.issuedInstType_0::SimdDiv                0      0.00%     82.31% # Number of instructions issued per FU type, per thread (Count)
system.cpu.issuedInstType_0::SimdSqrt               0      0.00%     82.31% # Number of instructions issued per FU type, per thread (Count)
system.cpu.issuedInstType_0::SimdFloatAdd            0      0.00%     82.31% # Number of instructions issued per FU type, per thread (Count)
system.cpu.issuedInstType_0::SimdFloatAlu            0      0.00%     82.31% # Number of instructions issued per FU type, per thread (Count)
system.cpu.issuedInstType_0::SimdFloatCmp            0      0.00%     82.31% # Number of instructions issued per FU type, per thread (Count)
system.cpu.issuedInstType_0::SimdFloatCvt            0      0.00%     82.31% # Number of instructions issued per FU type, per thread (Count)
system.cpu.issuedInstType_0::SimdFloatDiv            0      0.00%     82.31% # Number of instructions issued per FU type, per thread (Count)
system.cpu.issuedInstType_0::SimdFloatMisc            0      0.00%     82.31% # Number of instructions issued per FU type, per thread (Count)
system.cpu.issuedInstType_0::SimdFloatMult            0      0.00%     82.31% # Number of instructions issued per FU type, per thread (Count)
system.cpu.issuedInstType_0::SimdFloatMultAcc            0      0.00%     82.31% # Number of instructions issued per FU type, per thread (Count)
system.cpu.issuedInstType_0::SimdFloatMatMultAcc            0      0.00%     82.31% # Number of instructions issued per FU type, per thread (Count)
system.cpu.issuedInstType_0::SimdFloatSqrt            0      0.00%     82.31% # Number of instructions issued per FU type, per thread (Count)
system.cpu.issuedInstType_0::SimdReduceAdd            0      0.00%     82.31% # Number of instructions issued per FU type, per thread (Count)
system.cpu.issuedInstType_0::SimdReduceAlu            0      0.00%     82.31% # Number of instructions issued per FU type, per thread (Count)
system.cpu.issuedInstType_0::SimdReduceCmp            0      0.00%     82.31% # Number of instructions issued per FU type, per thread (Count)
system.cpu.issuedInstType_0::SimdFloatReduceAdd            0      0.00%     82.31% # Number of instructions issued per FU type, per thread (Count)
system.cpu.issuedInstType_0::SimdFloatReduceCmp            0      0.00%     82.31% # Number of instructions issued per FU type, per thread (Count)
system.cpu.issuedInstType_0::SimdAes                0      0.00%     82.31% # Number of instructions issued per FU type, per thread (Count)
system.cpu.issuedInstType_0::SimdAesMix             0      0.00%     82.31% # Number of instructions issued per FU type, per thread (Count)
system.cpu.issuedInstType_0::SimdSha1Hash            0      0.00%     82.31% # Number of instructions issued per FU type, per thread (Count)
system.cpu.issuedInstType_0::SimdSha1Hash2            0      0.00%     82.31% # Number of instructions issued per FU type, per thread (Count)
system.cpu.issuedInstType_0::SimdSha256Hash            0      0.00%     82.31% # Number of instructions issued per FU type, per thread (Count)
system.cpu.issuedInstType_0::SimdSha256Hash2            0      0.00%     82.31% # Number of instructions issued per FU type, per thread (Count)
system.cpu.issuedInstType_0::SimdShaSigma2            0      0.00%     82.31% # Number of instructions issued per FU type, per thread (Count)
system.cpu.issuedInstType_0::SimdShaSigma3            0      0.00%     82.31% # Number of instructions issued per FU type, per thread (Count)
system.cpu.issuedInstType_0::SimdPredAlu            0      0.00%     82.31% # Number of instructions issued per FU type, per thread (Count)
system.cpu.issuedInstType_0::Matrix                 0      0.00%     82.31% # Number of instructions issued per FU type, per thread (Count)
system.cpu.issuedInstType_0::MatrixMov              0      0.00%     82.31% # Number of instructions issued per FU type, per thread (Count)
system.cpu.issuedInstType_0::MatrixOP               0      0.00%     82.31% # Number of instructions issued per FU type, per thread (Count)
system.cpu.issuedInstType_0::MemRead           107858     12.98%     95.29% # Number of instructions issued per FU type, per thread (Count)
system.cpu.issuedInstType_0::MemWrite           18395      2.21%     97.51% # Number of instructions issued per FU type, per thread (Count)
system.cpu.issuedInstType_0::FloatMemRead         6739      0.81%     98.32% # Number of instructions issued per FU type, per thread (Count)
system.cpu.issuedInstType_0::FloatMemWrite        13965      1.68%    100.00% # Number of instructions issued per FU type, per thread (Count)
system.cpu.issuedInstType_0::IprAccess              0      0.00%    100.00% # Number of instructions issued per FU type, per thread (Count)
system.cpu.issuedInstType_0::InstPrefetch            0      0.00%    100.00% # Number of instructions issued per FU type, per thread (Count)
system.cpu.issuedInstType_0::SimdUnitStrideLoad            0      0.00%    100.00% # Number of instructions issued per FU type, per thread (Count)
system.cpu.issuedInstType_0::SimdUnitStrideStore            0      0.00%    100.00% # Number of instructions issued per FU type, per thread (Count)
system.cpu.issuedInstType_0::SimdUnitStrideMaskLoad            0      0.00%    100.00% # Number of instructions issued per FU type, per thread (Count)
system.cpu.issuedInstType_0::SimdUnitStrideMaskStore            0      0.00%    100.00% # Number of instructions issued per FU type, per thread (Count)
system.cpu.issuedInstType_0::SimdStridedLoad            0      0.00%    100.00% # Number of instructions issued per FU type, per thread (Count)
system.cpu.issuedInstType_0::SimdStridedStore            0      0.00%    100.00% # Number of instructions issued per FU type, per thread (Count)
system.cpu.issuedInstType_0::SimdIndexedLoad            0      0.00%    100.00% # Number of instructions issued per FU type, per thread (Count)
system.cpu.issuedInstType_0::SimdIndexedStore            0      0.00%    100.00% # Number of instructions issued per FU type, per thread (Count)
system.cpu.issuedInstType_0::SimdWholeRegisterLoad            0      0.00%    100.00% # Number of instructions issued per FU type, per thread (Count)
system.cpu.issuedInstType_0::SimdWholeRegisterStore            0      0.00%    100.00% # Number of instructions issued per FU type, per thread (Count)
system.cpu.issuedInstType_0::SimdUnitStrideFaultOnlyFirstLoad            0      0.00%    100.00% # Number of instructions issued per FU type, per thread (Count)
system.cpu.issuedInstType_0::SimdUnitStrideSegmentedLoad            0      0.00%    100.00% # Number of instructions issued per FU type, per thread (Count)
system.cpu.issuedInstType_0::SimdUnitStrideSegmentedStore            0      0.00%    100.00% # Number of instructions issued per FU type, per thread (Count)
system.cpu.issuedInstType_0::SimdUnitStrideSegmentedFaultOnlyFirstLoad            0      0.00%    100.00% # Number of instructions issued per FU type, per thread (Count)
system.cpu.issuedInstType_0::SimdStrideSegmentedLoad            0      0.00%    100.00% # Number of instructions issued per FU type, per thread (Count)
system.cpu.issuedInstType_0::SimdStrideSegmentedStore            0      0.00%    100.00% # Number of instructions issued per FU type, per thread (Count)
system.cpu.issuedInstType_0::SimdExt                0      0.00%    100.00% # Number of instructions issued per FU type, per thread (Count)
system.cpu.issuedInstType_0::SimdFloatExt            0      0.00%    100.00% # Number of instructions issued per FU type, per thread (Count)
system.cpu.issuedInstType_0::SimdConfig             0      0.00%    100.00% # Number of instructions issued per FU type, per thread (Count)
system.cpu.issuedInstType_0::SimdBf16Cvt            0      0.00%    100.00% # Number of instructions issued per FU type, per thread (Count)
system.cpu.issuedInstType_0::SimdBf16DotProd            0      0.00%    100.00% # Number of instructions issued per FU type, per thread (Count)
system.cpu.issuedInstType_0::SimdBf16MatMultAcc            0      0.00%    100.00% # Number of instructions issued per FU type, per thread (Count)
system.cpu.issuedInstType_0::SimdBf16MultAcc            0      0.00%    100.00% # Number of instructions issued per FU type, per thread (Count)
system.cpu.issuedInstType_0::Bf16Cvt                0      0.00%    100.00% # Number of instructions issued per FU type, per thread (Count)
system.cpu.issuedInstType_0::total             830760                       # Number of instructions issued per FU type, per thread (Count)
system.cpu.issueRate                         1.061297                       # Inst issue rate ((Count/Cycle))
system.cpu.fuBusy                               50074                       # FU busy when requested (Count)
system.cpu.fuBusyRate                        0.060275                       # FU busy rate (busy events/executed inst) ((Count/Count))
system.cpu.intInstQueueReads                  2161262                       # Number of integer instruction queue reads (Count)
system.cpu.intInstQueueWrites                  989879                       # Number of integer instruction queue writes (Count)
system.cpu.intInstQueueWakeupAccesses          782581                       # Number of integer instruction queue wakeup accesses (Count)
system.cpu.fpInstQueueReads                     75597                       # Number of floating instruction queue reads (Count)
system.cpu.fpInstQueueWrites                    49264                       # Number of floating instruction queue writes (Count)
system.cpu.fpInstQueueWakeupAccesses            36087                       # Number of floating instruction queue wakeup accesses (Count)
system.cpu.vecInstQueueReads                        0                       # Number of vector instruction queue reads (Count)
system.cpu.vecInstQueueWrites                       0                       # Number of vector instruction queue writes (Count)
system.cpu.vecInstQueueWakeupAccesses               0                       # Number of vector instruction queue wakeup accesses (Count)
system.cpu.intAluAccesses                      838209                       # Number of integer alu accesses (Count)
system.cpu.fpAluAccesses                        38050                       # Number of floating point alu accesses (Count)
system.cpu.vecAluAccesses                           0                       # Number of vector alu accesses (Count)
system.cpu.numRecvResp                         136057                       # Number of received responses (Count)
system.cpu.numRecvRespBytes                    525188                       # Number of received response bytes (Byte)
system.cpu.recvRespAvgBW                         0.67                       # Average bandwidth of received responses ((Byte/Cycle))
system.cpu.recvRespAvgSize                       3.86                       # Average packet size per received response ((Byte/Count))
system.cpu.recvRespAvgRate                       0.17                       # Average rate of received responses per cycle ((Count/Cycle))
system.cpu.recvRespAvgRetryRate                  0.00                       # Average retry rate per received response ((Count/Count))
system.cpu.numSendRetryResp                         0                       # Number of retry responses sent (Count)
system.cpu.numSquashedInsts                      6794                       # Number of squashed instructions skipped in execute (Count)
system.cpu.numSwp                                   0                       # Number of swp insts executed (Count)
system.cpu.timesIdled                            1134                       # Number of times that the entire CPU went into an idle state and unscheduled itself (Count)
system.cpu.idleCycles                          260363                       # Total number of cycles that the CPU has spent unscheduled due to idling (Cycle)
system.cpu.MemDepUnit__0.insertedLoads         119927                       # Number of loads inserted to the mem dependence unit. (Count)
system.cpu.MemDepUnit__0.insertedStores         34671                       # Number of stores inserted to the mem dependence unit. (Count)
system.cpu.MemDepUnit__0.conflictingLoads         1812                       # Number of conflicting loads. (Count)
system.cpu.MemDepUnit__0.conflictingStores         2240                       # Number of conflicting stores. (Count)
system.cpu.MemDepUnit__1.insertedLoads              0                       # Number of loads inserted to the mem dependence unit. (Count)
system.cpu.MemDepUnit__1.insertedStores             0                       # Number of stores inserted to the mem dependence unit. (Count)
system.cpu.MemDepUnit__1.conflictingLoads            0                       # Number of conflicting loads. (Count)
system.cpu.MemDepUnit__1.conflictingStores            0                       # Number of conflicting stores. (Count)
system.cpu.MemDepUnit__2.insertedLoads              0                       # Number of loads inserted to the mem dependence unit. (Count)
system.cpu.MemDepUnit__2.insertedStores             0                       # Number of stores inserted to the mem dependence unit. (Count)
system.cpu.MemDepUnit__2.conflictingLoads            0                       # Number of conflicting loads. (Count)
system.cpu.MemDepUnit__2.conflictingStores            0                       # Number of conflicting stores. (Count)
system.cpu.MemDepUnit__3.insertedLoads              0                       # Number of loads inserted to the mem dependence unit. (Count)
system.cpu.MemDepUnit__3.insertedStores             0                       # Number of stores inserted to the mem dependence unit. (Count)
system.cpu.MemDepUnit__3.conflictingLoads            0                       # Number of conflicting loads. (Count)
system.cpu.MemDepUnit__3.conflictingStores            0                       # Number of conflicting stores. (Count)
system.cpu.bac.fetchTargets                         0                       # Number of fetch targets created  (Count)
system.cpu.bac.branches                        121500                       # Number of branches that BAC encountered (Count)
system.cpu.bac.predTakenBranches                59341                       # Number of branches that BAC predicted taken. (Count)
system.cpu.bac.branchesNotLastuOp                   0                       # Number of branches that fetch encountered which are not the last uOp within a macrooperation. Jump to itself. (Count)
system.cpu.bac.branchMisspredict                 4318                       # Number of mispredicted branches (Count)
system.cpu.bac.noBranchMisspredict                683                       # Number of non-branch instructions mispredicted (Count)
system.cpu.bac.squashBranchDecode                 700                       # Number of branches squashed from decode (Count)
system.cpu.bac.squashBranchCommit                3618                       # Number of branches squashed from commit (Count)
system.cpu.bac.preDecUpdate::NoBranch               0                       # Number of branches extracted from the predecoder (Count)
system.cpu.bac.preDecUpdate::Return                 0                       # Number of branches extracted from the predecoder (Count)
system.cpu.bac.preDecUpdate::CallDirect             0                       # Number of branches extracted from the predecoder (Count)
system.cpu.bac.preDecUpdate::CallIndirect            0                       # Number of branches extracted from the predecoder (Count)
system.cpu.bac.preDecUpdate::DirectCond             0                       # Number of branches extracted from the predecoder (Count)
system.cpu.bac.preDecUpdate::DirectUncond            0                       # Number of branches extracted from the predecoder (Count)
system.cpu.bac.preDecUpdate::IndirectCond            0                       # Number of branches extracted from the predecoder (Count)
system.cpu.bac.preDecUpdate::IndirectUncond            0                       # Number of branches extracted from the predecoder (Count)
system.cpu.bac.preDecUpdate::total                  0                       # Number of branches extracted from the predecoder (Count)
system.cpu.bac.noHistByType::NoBranch               0                       # Number and type of branches that were undetected by the BPU. (Count)
system.cpu.bac.noHistByType::Return                 0                       # Number and type of branches that were undetected by the BPU. (Count)
system.cpu.bac.noHistByType::CallDirect             0                       # Number and type of branches that were undetected by the BPU. (Count)
system.cpu.bac.noHistByType::CallIndirect            0                       # Number and type of branches that were undetected by the BPU. (Count)
system.cpu.bac.noHistByType::DirectCond             0                       # Number and type of branches that were undetected by the BPU. (Count)
system.cpu.bac.noHistByType::DirectUncond            0                       # Number and type of branches that were undetected by the BPU. (Count)
system.cpu.bac.noHistByType::IndirectCond            0                       # Number and type of branches that were undetected by the BPU. (Count)
system.cpu.bac.noHistByType::IndirectUncond            0                       # Number and type of branches that were undetected by the BPU. (Count)
system.cpu.bac.noHistByType::total                  0                       # Number and type of branches that were undetected by the BPU. (Count)
system.cpu.bac.typeMissmatch                        0                       # Number branches where the branch type miss match (Count)
system.cpu.bac.multiBranchInst                      0                       # Number branches because its not the last branch. (Count)
system.cpu.bac.ftSizeDist::samples                  0                       # Number of bytes per fetch target (Count)
system.cpu.bac.ftSizeDist::mean                   nan                       # Number of bytes per fetch target (Count)
system.cpu.bac.ftSizeDist::stdev                  nan                       # Number of bytes per fetch target (Count)
system.cpu.bac.ftSizeDist::underflows               0                       # Number of bytes per fetch target (Count)
system.cpu.bac.ftSizeDist::0-3                      0                       # Number of bytes per fetch target (Count)
system.cpu.bac.ftSizeDist::4-7                      0                       # Number of bytes per fetch target (Count)
system.cpu.bac.ftSizeDist::8-11                     0                       # Number of bytes per fetch target (Count)
system.cpu.bac.ftSizeDist::12-15                    0                       # Number of bytes per fetch target (Count)
system.cpu.bac.ftSizeDist::16-19                    0                       # Number of bytes per fetch target (Count)
system.cpu.bac.ftSizeDist::20-23                    0                       # Number of bytes per fetch target (Count)
system.cpu.bac.ftSizeDist::24-27                    0                       # Number of bytes per fetch target (Count)
system.cpu.bac.ftSizeDist::28-31                    0                       # Number of bytes per fetch target (Count)
system.cpu.bac.ftSizeDist::32                       0                       # Number of bytes per fetch target (Count)
system.cpu.bac.ftSizeDist::overflows                0                       # Number of bytes per fetch target (Count)
system.cpu.bac.ftSizeDist::min_value                0                       # Number of bytes per fetch target (Count)
system.cpu.bac.ftSizeDist::max_value                0                       # Number of bytes per fetch target (Count)
system.cpu.bac.ftSizeDist::total                    0                       # Number of bytes per fetch target (Count)
system.cpu.bac.ftNumber::samples                    0                       # Number of fetch target inserted to the FTQ per cycle (Count)
system.cpu.bac.ftNumber::mean                     nan                       # Number of fetch target inserted to the FTQ per cycle (Count)
system.cpu.bac.ftNumber::stdev                    nan                       # Number of fetch target inserted to the FTQ per cycle (Count)
system.cpu.bac.ftNumber::underflows                 0                       # Number of fetch target inserted to the FTQ per cycle (Count)
system.cpu.bac.ftNumber::0                          0                       # Number of fetch target inserted to the FTQ per cycle (Count)
system.cpu.bac.ftNumber::1                          0                       # Number of fetch target inserted to the FTQ per cycle (Count)
system.cpu.bac.ftNumber::2                          0                       # Number of fetch target inserted to the FTQ per cycle (Count)
system.cpu.bac.ftNumber::3                          0                       # Number of fetch target inserted to the FTQ per cycle (Count)
system.cpu.bac.ftNumber::4                          0                       # Number of fetch target inserted to the FTQ per cycle (Count)
system.cpu.bac.ftNumber::overflows                  0                       # Number of fetch target inserted to the FTQ per cycle (Count)
system.cpu.bac.ftNumber::min_value                  0                       # Number of fetch target inserted to the FTQ per cycle (Count)
system.cpu.bac.ftNumber::max_value                  0                       # Number of fetch target inserted to the FTQ per cycle (Count)
system.cpu.bac.ftNumber::total                      0                       # Number of fetch target inserted to the FTQ per cycle (Count)
system.cpu.branchPred.lookups_0::NoBranch         1626      1.34%      1.34% # Number of BP lookups (Count)
system.cpu.branchPred.lookups_0::Return          1707      1.40%      2.74% # Number of BP lookups (Count)
system.cpu.branchPred.lookups_0::CallDirect         2062      1.70%      4.44% # Number of BP lookups (Count)
system.cpu.branchPred.lookups_0::CallIndirect          172      0.14%      4.58% # Number of BP lookups (Count)
system.cpu.branchPred.lookups_0::DirectCond       112481     92.58%     97.16% # Number of BP lookups (Count)
system.cpu.branchPred.lookups_0::DirectUncond         2357      1.94%     99.10% # Number of BP lookups (Count)
system.cpu.branchPred.lookups_0::IndirectCond            0      0.00%     99.10% # Number of BP lookups (Count)
system.cpu.branchPred.lookups_0::IndirectUncond         1095      0.90%    100.00% # Number of BP lookups (Count)
system.cpu.branchPred.lookups_0::total         121500                       # Number of BP lookups (Count)
system.cpu.branchPred.squashes_0::NoBranch         1575      5.25%      5.25% # Number of branches that got squashed (completely removed) as an earlier branch was mispredicted. (Count)
system.cpu.branchPred.squashes_0::Return          683      2.28%      7.52% # Number of branches that got squashed (completely removed) as an earlier branch was mispredicted. (Count)
system.cpu.branchPred.squashes_0::CallDirect         1140      3.80%     11.32% # Number of branches that got squashed (completely removed) as an earlier branch was mispredicted. (Count)
system.cpu.branchPred.squashes_0::CallIndirect           65      0.22%     11.54% # Number of branches that got squashed (completely removed) as an earlier branch was mispredicted. (Count)
system.cpu.branchPred.squashes_0::DirectCond        24740     82.44%     93.98% # Number of branches that got squashed (completely removed) as an earlier branch was mispredicted. (Count)
system.cpu.branchPred.squashes_0::DirectUncond         1002      3.34%     97.32% # Number of branches that got squashed (completely removed) as an earlier branch was mispredicted. (Count)
system.cpu.branchPred.squashes_0::IndirectCond            0      0.00%     97.32% # Number of branches that got squashed (completely removed) as an earlier branch was mispredicted. (Count)
system.cpu.branchPred.squashes_0::IndirectUncond          805      2.68%    100.00% # Number of branches that got squashed (completely removed) as an earlier branch was mispredicted. (Count)
system.cpu.branchPred.squashes_0::total         30010                       # Number of branches that got squashed (completely removed) as an earlier branch was mispredicted. (Count)
system.cpu.branchPred.corrected_0::NoBranch          129      2.99%      2.99% # Number of branches that got corrected but not yet commited. Branches get corrected by decode or after execute. Also a branch misprediction can be detected out-of-order. Therefore, a corrected branch might not end up beeing committed in case an even earlier branch was mispredicted (Count)
system.cpu.branchPred.corrected_0::Return            4      0.09%      3.08% # Number of branches that got corrected but not yet commited. Branches get corrected by decode or after execute. Also a branch misprediction can be detected out-of-order. Therefore, a corrected branch might not end up beeing committed in case an even earlier branch was mispredicted (Count)
system.cpu.branchPred.corrected_0::CallDirect          367      8.50%     11.58% # Number of branches that got corrected but not yet commited. Branches get corrected by decode or after execute. Also a branch misprediction can be detected out-of-order. Therefore, a corrected branch might not end up beeing committed in case an even earlier branch was mispredicted (Count)
system.cpu.branchPred.corrected_0::CallIndirect          107      2.48%     14.06% # Number of branches that got corrected but not yet commited. Branches get corrected by decode or after execute. Also a branch misprediction can be detected out-of-order. Therefore, a corrected branch might not end up beeing committed in case an even earlier branch was mispredicted (Count)
system.cpu.branchPred.corrected_0::DirectCond         3182     73.69%     87.75% # Number of branches that got corrected but not yet commited. Branches get corrected by decode or after execute. Also a branch misprediction can be detected out-of-order. Therefore, a corrected branch might not end up beeing committed in case an even earlier branch was mispredicted (Count)
system.cpu.branchPred.corrected_0::DirectUncond          298      6.90%     94.65% # Number of branches that got corrected but not yet commited. Branches get corrected by decode or after execute. Also a branch misprediction can be detected out-of-order. Therefore, a corrected branch might not end up beeing committed in case an even earlier branch was mispredicted (Count)
system.cpu.branchPred.corrected_0::IndirectCond            0      0.00%     94.65% # Number of branches that got corrected but not yet commited. Branches get corrected by decode or after execute. Also a branch misprediction can be detected out-of-order. Therefore, a corrected branch might not end up beeing committed in case an even earlier branch was mispredicted (Count)
system.cpu.branchPred.corrected_0::IndirectUncond          231      5.35%    100.00% # Number of branches that got corrected but not yet commited. Branches get corrected by decode or after execute. Also a branch misprediction can be detected out-of-order. Therefore, a corrected branch might not end up beeing committed in case an even earlier branch was mispredicted (Count)
system.cpu.branchPred.corrected_0::total         4318                       # Number of branches that got corrected but not yet commited. Branches get corrected by decode or after execute. Also a branch misprediction can be detected out-of-order. Therefore, a corrected branch might not end up beeing committed in case an even earlier branch was mispredicted (Count)
system.cpu.branchPred.earlyResteers_0::NoBranch            0      0.00%      0.00% # Number of branches that got redirected after decode. (Count)
system.cpu.branchPred.earlyResteers_0::Return            0      0.00%      0.00% # Number of branches that got redirected after decode. (Count)
system.cpu.branchPred.earlyResteers_0::CallDirect          367     52.43%     52.43% # Number of branches that got redirected after decode. (Count)
system.cpu.branchPred.earlyResteers_0::CallIndirect            0      0.00%     52.43% # Number of branches that got redirected after decode. (Count)
system.cpu.branchPred.earlyResteers_0::DirectCond           35      5.00%     57.43% # Number of branches that got redirected after decode. (Count)
system.cpu.branchPred.earlyResteers_0::DirectUncond          298     42.57%    100.00% # Number of branches that got redirected after decode. (Count)
system.cpu.branchPred.earlyResteers_0::IndirectCond            0      0.00%    100.00% # Number of branches that got redirected after decode. (Count)
system.cpu.branchPred.earlyResteers_0::IndirectUncond            0      0.00%    100.00% # Number of branches that got redirected after decode. (Count)
system.cpu.branchPred.earlyResteers_0::total          700                       # Number of branches that got redirected after decode. (Count)
system.cpu.branchPred.committed_0::NoBranch           51      0.06%      0.06% # Number of branches finally committed  (Count)
system.cpu.branchPred.committed_0::Return         1024      1.12%      1.18% # Number of branches finally committed  (Count)
system.cpu.branchPred.committed_0::CallDirect          922      1.01%      2.18% # Number of branches finally committed  (Count)
system.cpu.branchPred.committed_0::CallIndirect          107      0.12%      2.30% # Number of branches finally committed  (Count)
system.cpu.branchPred.committed_0::DirectCond        87740     95.90%     98.20% # Number of branches finally committed  (Count)
system.cpu.branchPred.committed_0::DirectUncond         1355      1.48%     99.68% # Number of branches finally committed  (Count)
system.cpu.branchPred.committed_0::IndirectCond            0      0.00%     99.68% # Number of branches finally committed  (Count)
system.cpu.branchPred.committed_0::IndirectUncond          290      0.32%    100.00% # Number of branches finally committed  (Count)
system.cpu.branchPred.committed_0::total        91489                       # Number of branches finally committed  (Count)
system.cpu.branchPred.mispredicted_0::NoBranch           51      1.42%      1.42% # Number of committed branches that were mispredicted. (Count)
system.cpu.branchPred.mispredicted_0::Return            0      0.00%      1.42% # Number of committed branches that were mispredicted. (Count)
system.cpu.branchPred.mispredicted_0::CallDirect          214      5.97%      7.40% # Number of committed branches that were mispredicted. (Count)
system.cpu.branchPred.mispredicted_0::CallIndirect          103      2.87%     10.27% # Number of committed branches that were mispredicted. (Count)
system.cpu.branchPred.mispredicted_0::DirectCond         2844     79.37%     89.65% # Number of committed branches that were mispredicted. (Count)
system.cpu.branchPred.mispredicted_0::DirectUncond          167      4.66%     94.31% # Number of committed branches that were mispredicted. (Count)
system.cpu.branchPred.mispredicted_0::IndirectCond            0      0.00%     94.31% # Number of committed branches that were mispredicted. (Count)
system.cpu.branchPred.mispredicted_0::IndirectUncond          204      5.69%    100.00% # Number of committed branches that were mispredicted. (Count)
system.cpu.branchPred.mispredicted_0::total         3583                       # Number of committed branches that were mispredicted. (Count)
system.cpu.branchPred.mispredictDueToPredictor_0::NoBranch           51      2.37%      2.37% # Number of committed branches that were mispredicted by the predictor. (Count)
system.cpu.branchPred.mispredictDueToPredictor_0::Return            0      0.00%      2.37% # Number of committed branches that were mispredicted by the predictor. (Count)
system.cpu.branchPred.mispredictDueToPredictor_0::CallDirect            0      0.00%      2.37% # Number of committed branches that were mispredicted by the predictor. (Count)
system.cpu.branchPred.mispredictDueToPredictor_0::CallIndirect            0      0.00%      2.37% # Number of committed branches that were mispredicted by the predictor. (Count)
system.cpu.branchPred.mispredictDueToPredictor_0::DirectCond         2101     97.63%    100.00% # Number of committed branches that were mispredicted by the predictor. (Count)
system.cpu.branchPred.mispredictDueToPredictor_0::DirectUncond            0      0.00%    100.00% # Number of committed branches that were mispredicted by the predictor. (Count)
system.cpu.branchPred.mispredictDueToPredictor_0::IndirectCond            0      0.00%    100.00% # Number of committed branches that were mispredicted by the predictor. (Count)
system.cpu.branchPred.mispredictDueToPredictor_0::IndirectUncond            0      0.00%    100.00% # Number of committed branches that were mispredicted by the predictor. (Count)
system.cpu.branchPred.mispredictDueToPredictor_0::total         2152                       # Number of committed branches that were mispredicted by the predictor. (Count)
system.cpu.branchPred.mispredictDueToBTBMiss_0::NoBranch            0      0.00%      0.00% # Number of committed branches that were mispredicted because of a BTB miss. (Count)
system.cpu.branchPred.mispredictDueToBTBMiss_0::Return            0      0.00%      0.00% # Number of committed branches that were mispredicted because of a BTB miss. (Count)
system.cpu.branchPred.mispredictDueToBTBMiss_0::CallDirect          214     14.95%     14.95% # Number of committed branches that were mispredicted because of a BTB miss. (Count)
system.cpu.branchPred.mispredictDueToBTBMiss_0::CallIndirect          103      7.20%     22.15% # Number of committed branches that were mispredicted because of a BTB miss. (Count)
system.cpu.branchPred.mispredictDueToBTBMiss_0::DirectCond          743     51.92%     74.07% # Number of committed branches that were mispredicted because of a BTB miss. (Count)
system.cpu.branchPred.mispredictDueToBTBMiss_0::DirectUncond          167     11.67%     85.74% # Number of committed branches that were mispredicted because of a BTB miss. (Count)
system.cpu.branchPred.mispredictDueToBTBMiss_0::IndirectCond            0      0.00%     85.74% # Number of committed branches that were mispredicted because of a BTB miss. (Count)
system.cpu.branchPred.mispredictDueToBTBMiss_0::IndirectUncond          204     14.26%    100.00% # Number of committed branches that were mispredicted because of a BTB miss. (Count)
system.cpu.branchPred.mispredictDueToBTBMiss_0::total         1431                       # Number of committed branches that were mispredicted because of a BTB miss. (Count)
system.cpu.branchPred.targetProvider_0::NoTarget        62159     51.16%     51.16% # The component providing the target for taken branches (Count)
system.cpu.branchPred.targetProvider_0::BTB        57489     47.32%     98.48% # The component providing the target for taken branches (Count)
system.cpu.branchPred.targetProvider_0::RAS         1707      1.40%     99.88% # The component providing the target for taken branches (Count)
system.cpu.branchPred.targetProvider_0::Indirect          145      0.12%    100.00% # The component providing the target for taken branches (Count)
system.cpu.branchPred.targetProvider_0::total       121500                       # The component providing the target for taken branches (Count)
system.cpu.branchPred.targetWrong_0::NoBranch         2903     73.29%     73.29% # Number of branches where the target was incorrect or not available at prediction time. (Count)
system.cpu.branchPred.targetWrong_0::Return         1033     26.08%     99.37% # Number of branches where the target was incorrect or not available at prediction time. (Count)
system.cpu.branchPred.targetWrong_0::CallDirect            4      0.10%     99.47% # Number of branches where the target was incorrect or not available at prediction time. (Count)
system.cpu.branchPred.targetWrong_0::CallIndirect           21      0.53%    100.00% # Number of branches where the target was incorrect or not available at prediction time. (Count)
system.cpu.branchPred.targetWrong_0::DirectCond            0      0.00%    100.00% # Number of branches where the target was incorrect or not available at prediction time. (Count)
system.cpu.branchPred.targetWrong_0::DirectUncond            0      0.00%    100.00% # Number of branches where the target was incorrect or not available at prediction time. (Count)
system.cpu.branchPred.targetWrong_0::IndirectCond            0      0.00%    100.00% # Number of branches where the target was incorrect or not available at prediction time. (Count)
system.cpu.branchPred.targetWrong_0::IndirectUncond            0      0.00%    100.00% # Number of branches where the target was incorrect or not available at prediction time. (Count)
system.cpu.branchPred.targetWrong_0::total         3961                       # Number of branches where the target was incorrect or not available at prediction time. (Count)
system.cpu.branchPred.condPredicted            112481                       # Number of conditional branches predicted (Count)
system.cpu.branchPred.condPredictedTaken        54116                       # Number of conditional branches predicted as taken (Count)
system.cpu.branchPred.condIncorrect              3583                       # Number of conditional branches incorrect (Count)
system.cpu.branchPred.predTakenBTBMiss            973                       # Number of branches predicted taken but missed in BTB (Count)
system.cpu.branchPred.BTBLookups               121500                       # Number of BTB lookups (Count)
system.cpu.branchPred.BTBUpdates                 2902                       # Number of BTB updates (Count)
system.cpu.branchPred.BTBHits                   67387                       # Number of BTB hits (Count)
system.cpu.branchPred.BTBHitRatio            0.554626                       # BTB Hit Ratio (Ratio)
system.cpu.branchPred.BTBMispredicted            1558                       # Number BTB mispredictions. No target found or target wrong (Count)
system.cpu.branchPred.indirectLookups            1267                       # Number of indirect predictor lookups. (Count)
system.cpu.branchPred.indirectHits                145                       # Number of indirect target hits. (Count)
system.cpu.branchPred.indirectMisses             1122                       # Number of indirect misses. (Count)
system.cpu.branchPred.indirectMispredicted            0                       # Number of mispredicted indirect branches. (Count)
system.cpu.branchPred.btb.lookups::NoBranch         1626      1.34%      1.34% # Number of BTB lookups (Count)
system.cpu.branchPred.btb.lookups::Return         1707      1.40%      2.74% # Number of BTB lookups (Count)
system.cpu.branchPred.btb.lookups::CallDirect         2062      1.70%      4.44% # Number of BTB lookups (Count)
system.cpu.branchPred.btb.lookups::CallIndirect          172      0.14%      4.58% # Number of BTB lookups (Count)
system.cpu.branchPred.btb.lookups::DirectCond       112481     92.58%     97.16% # Number of BTB lookups (Count)
system.cpu.branchPred.btb.lookups::DirectUncond         2357      1.94%     99.10% # Number of BTB lookups (Count)
system.cpu.branchPred.btb.lookups::IndirectCond            0      0.00%     99.10% # Number of BTB lookups (Count)
system.cpu.branchPred.btb.lookups::IndirectUncond         1095      0.90%    100.00% # Number of BTB lookups (Count)
system.cpu.branchPred.btb.lookups::total       121500                       # Number of BTB lookups (Count)
system.cpu.branchPred.btb.misses::NoBranch          224      0.41%      0.41% # Number of BTB misses (Count)
system.cpu.branchPred.btb.misses::Return         1707      3.15%      3.57% # Number of BTB misses (Count)
system.cpu.branchPred.btb.misses::CallDirect          537      0.99%      4.56% # Number of BTB misses (Count)
system.cpu.branchPred.btb.misses::CallIndirect          172      0.32%      4.88% # Number of BTB misses (Count)
system.cpu.branchPred.btb.misses::DirectCond        49960     92.33%     97.20% # Number of BTB misses (Count)
system.cpu.branchPred.btb.misses::DirectUncond          418      0.77%     97.98% # Number of BTB misses (Count)
system.cpu.branchPred.btb.misses::IndirectCond            0      0.00%     97.98% # Number of BTB misses (Count)
system.cpu.branchPred.btb.misses::IndirectUncond         1095      2.02%    100.00% # Number of BTB misses (Count)
system.cpu.branchPred.btb.misses::total         54113                       # Number of BTB misses (Count)
system.cpu.branchPred.btb.updates::NoBranch          129      4.45%      4.45% # Number of BTB updates (Count)
system.cpu.branchPred.btb.updates::Return            0      0.00%      4.45% # Number of BTB updates (Count)
system.cpu.branchPred.btb.updates::CallDirect          367     12.65%     17.09% # Number of BTB updates (Count)
system.cpu.branchPred.btb.updates::CallIndirect            0      0.00%     17.09% # Number of BTB updates (Count)
system.cpu.branchPred.btb.updates::DirectCond         2108     72.64%     89.73% # Number of BTB updates (Count)
system.cpu.branchPred.btb.updates::DirectUncond          298     10.27%    100.00% # Number of BTB updates (Count)
system.cpu.branchPred.btb.updates::IndirectCond            0      0.00%    100.00% # Number of BTB updates (Count)
system.cpu.branchPred.btb.updates::IndirectUncond            0      0.00%    100.00% # Number of BTB updates (Count)
system.cpu.branchPred.btb.updates::total         2902                       # Number of BTB updates (Count)
system.cpu.branchPred.btb.mispredict::NoBranch          129      4.45%      4.45% # Number of BTB mispredictions. No target found or target wrong. (Count)
system.cpu.branchPred.btb.mispredict::Return            0      0.00%      4.45% # Number of BTB mispredictions. No target found or target wrong. (Count)
system.cpu.branchPred.btb.mispredict::CallDirect          367     12.65%     17.09% # Number of BTB mispredictions. No target found or target wrong. (Count)
system.cpu.branchPred.btb.mispredict::CallIndirect            0      0.00%     17.09% # Number of BTB mispredictions. No target found or target wrong. (Count)
system.cpu.branchPred.btb.mispredict::DirectCond         2108     72.64%     89.73% # Number of BTB mispredictions. No target found or target wrong. (Count)
system.cpu.branchPred.btb.mispredict::DirectUncond          298     10.27%    100.00% # Number of BTB mispredictions. No target found or target wrong. (Count)
system.cpu.branchPred.btb.mispredict::IndirectCond            0      0.00%    100.00% # Number of BTB mispredictions. No target found or target wrong. (Count)
system.cpu.branchPred.btb.mispredict::IndirectUncond            0      0.00%    100.00% # Number of BTB mispredictions. No target found or target wrong. (Count)
system.cpu.branchPred.btb.mispredict::total         2902                       # Number of BTB mispredictions. No target found or target wrong. (Count)
system.cpu.branchPred.btb.power_state.pwrStateResidencyTicks::UNDEFINED    195694250                       # Cumulative time (in ticks) in various power states (Tick)
system.cpu.branchPred.indirectBranchPred.lookups         1267                       # Number of lookups (Count)
system.cpu.branchPred.indirectBranchPred.hits          145                       # Number of hits of a tag (Count)
system.cpu.branchPred.indirectBranchPred.misses         1122                       # Number of misses (Count)
system.cpu.branchPred.indirectBranchPred.targetRecords          338                       # Number of targets that where recorded/installed in the cache (Count)
system.cpu.branchPred.indirectBranchPred.indirectRecords         1605                       # Number of indirect branches/calls recorded in the indirect hist (Count)
system.cpu.branchPred.indirectBranchPred.speculativeOverflows            5                       # Number of times more than the allowed capacity for speculative branches/calls where in flight and destroy the path history (Count)
system.cpu.branchPred.ras.pushes                 2917                       # Number of times a PC was pushed onto the RAS (Count)
system.cpu.branchPred.ras.pops                   2912                       # Number of times a PC was poped from the RAS (Count)
system.cpu.branchPred.ras.squashes               1888                       # Number of times the stack operation was squashed due to wrong speculation. (Count)
system.cpu.branchPred.ras.used                   1024                       # Number of times the RAS is the provider (Count)
system.cpu.branchPred.ras.correct                1024                       # Number of times the RAS is the provider and the prediction is correct (Count)
system.cpu.branchPred.ras.incorrect                 0                       # Number of times the RAS is the provider and the prediction is wrong (Count)
system.cpu.commit.commitSquashedInsts          159415                       # The number of squashed insts skipped by commit (Count)
system.cpu.commit.commitNonSpecStalls              36                       # The number of times commit has been forced to stall to communicate backwards (Count)
system.cpu.commit.branchMispredicts              4062                       # The number of times a branch was mispredicted (Count)
system.cpu.commit.numCommittedDist::samples       499309                       # Number of insts commited each cycle (Count)
system.cpu.commit.numCommittedDist::mean     1.439283                       # Number of insts commited each cycle (Count)
system.cpu.commit.numCommittedDist::stdev     2.787791                       # Number of insts commited each cycle (Count)
system.cpu.commit.numCommittedDist::underflows            0      0.00%      0.00% # Number of insts commited each cycle (Count)
system.cpu.commit.numCommittedDist::0          361407     72.38%     72.38% # Number of insts commited each cycle (Count)
system.cpu.commit.numCommittedDist::1           26574      5.32%     77.70% # Number of insts commited each cycle (Count)
system.cpu.commit.numCommittedDist::2           10470      2.10%     79.80% # Number of insts commited each cycle (Count)
system.cpu.commit.numCommittedDist::3           13815      2.77%     82.57% # Number of insts commited each cycle (Count)
system.cpu.commit.numCommittedDist::4            9863      1.98%     84.54% # Number of insts commited each cycle (Count)
system.cpu.commit.numCommittedDist::5            2485      0.50%     85.04% # Number of insts commited each cycle (Count)
system.cpu.commit.numCommittedDist::6            8941      1.79%     86.83% # Number of insts commited each cycle (Count)
system.cpu.commit.numCommittedDist::7            1867      0.37%     87.20% # Number of insts commited each cycle (Count)
system.cpu.commit.numCommittedDist::8           63887     12.80%    100.00% # Number of insts commited each cycle (Count)
system.cpu.commit.numCommittedDist::overflows            0      0.00%    100.00% # Number of insts commited each cycle (Count)
system.cpu.commit.numCommittedDist::min_value            0                       # Number of insts commited each cycle (Count)
system.cpu.commit.numCommittedDist::max_value            8                       # Number of insts commited each cycle (Count)
system.cpu.commit.numCommittedDist::total       499309                       # Number of insts commited each cycle (Count)
system.cpu.commit.amos                              0                       # Number of atomic instructions committed (Count)
system.cpu.commit.membars                          24                       # Number of memory barriers committed (Count)
system.cpu.commit.committedInstType_0::No_OpClass         2072      0.29%      0.29% # Class of committed instruction (Count)
system.cpu.commit.committedInstType_0::IntAlu       579067     80.58%     80.87% # Class of committed instruction (Count)
system.cpu.commit.committedInstType_0::IntMult          761      0.11%     80.97% # Class of committed instruction (Count)
system.cpu.commit.committedInstType_0::IntDiv         1679      0.23%     81.21% # Class of committed instruction (Count)
system.cpu.commit.committedInstType_0::FloatAdd          459      0.06%     81.27% # Class of committed instruction (Count)
system.cpu.commit.committedInstType_0::FloatCmp            0      0.00%     81.27% # Class of committed instruction (Count)
system.cpu.commit.committedInstType_0::FloatCvt            0      0.00%     81.27% # Class of committed instruction (Count)
system.cpu.commit.committedInstType_0::FloatMult            0      0.00%     81.27% # Class of committed instruction (Count)
system.cpu.commit.committedInstType_0::FloatMultAcc            0      0.00%     81.27% # Class of committed instruction (Count)
system.cpu.commit.committedInstType_0::FloatDiv            0      0.00%     81.27% # Class of committed instruction (Count)
system.cpu.commit.committedInstType_0::FloatMisc            0      0.00%     81.27% # Class of committed instruction (Count)
system.cpu.commit.committedInstType_0::FloatSqrt            0      0.00%     81.27% # Class of committed instruction (Count)
system.cpu.commit.committedInstType_0::SimdAdd          506      0.07%     81.34% # Class of committed instruction (Count)
system.cpu.commit.committedInstType_0::SimdAddAcc            0      0.00%     81.34% # Class of committed instruction (Count)
system.cpu.commit.committedInstType_0::SimdAlu         1100      0.15%     81.49% # Class of committed instruction (Count)
system.cpu.commit.committedInstType_0::SimdCmp            2      0.00%     81.49% # Class of committed instruction (Count)
system.cpu.commit.committedInstType_0::SimdCvt         1152      0.16%     81.65% # Class of committed instruction (Count)
system.cpu.commit.committedInstType_0::SimdMisc         5222      0.73%     82.38% # Class of committed instruction (Count)
system.cpu.commit.committedInstType_0::SimdMult            0      0.00%     82.38% # Class of committed instruction (Count)
system.cpu.commit.committedInstType_0::SimdMultAcc            0      0.00%     82.38% # Class of committed instruction (Count)
system.cpu.commit.committedInstType_0::SimdMatMultAcc            0      0.00%     82.38% # Class of committed instruction (Count)
system.cpu.commit.committedInstType_0::SimdShift          279      0.04%     82.42% # Class of committed instruction (Count)
system.cpu.commit.committedInstType_0::SimdShiftAcc            0      0.00%     82.42% # Class of committed instruction (Count)
system.cpu.commit.committedInstType_0::SimdDiv            0      0.00%     82.42% # Class of committed instruction (Count)
system.cpu.commit.committedInstType_0::SimdSqrt            0      0.00%     82.42% # Class of committed instruction (Count)
system.cpu.commit.committedInstType_0::SimdFloatAdd            0      0.00%     82.42% # Class of committed instruction (Count)
system.cpu.commit.committedInstType_0::SimdFloatAlu            0      0.00%     82.42% # Class of committed instruction (Count)
system.cpu.commit.committedInstType_0::SimdFloatCmp            0      0.00%     82.42% # Class of committed instruction (Count)
system.cpu.commit.committedInstType_0::SimdFloatCvt            0      0.00%     82.42% # Class of committed instruction (Count)
system.cpu.commit.committedInstType_0::SimdFloatDiv            0      0.00%     82.42% # Class of committed instruction (Count)
system.cpu.commit.committedInstType_0::SimdFloatMisc            0      0.00%     82.42% # Class of committed instruction (Count)
system.cpu.commit.committedInstType_0::SimdFloatMult            0      0.00%     82.42% # Class of committed instruction (Count)
system.cpu.commit.committedInstType_0::SimdFloatMultAcc            0      0.00%     82.42% # Class of committed instruction (Count)
system.cpu.commit.committedInstType_0::SimdFloatMatMultAcc            0      0.00%     82.42% # Class of committed instruction (Count)
system.cpu.commit.committedInstType_0::SimdFloatSqrt            0      0.00%     82.42% # Class of committed instruction (Count)
system.cpu.commit.committedInstType_0::SimdReduceAdd            0      0.00%     82.42% # Class of committed instruction (Count)
system.cpu.commit.committedInstType_0::SimdReduceAlu            0      0.00%     82.42% # Class of committed instruction (Count)
system.cpu.commit.committedInstType_0::SimdReduceCmp            0      0.00%     82.42% # Class of committed instruction (Count)
system.cpu.commit.committedInstType_0::SimdFloatReduceAdd            0      0.00%     82.42% # Class of committed instruction (Count)
system.cpu.commit.committedInstType_0::SimdFloatReduceCmp            0      0.00%     82.42% # Class of committed instruction (Count)
system.cpu.commit.committedInstType_0::SimdAes            0      0.00%     82.42% # Class of committed instruction (Count)
system.cpu.commit.committedInstType_0::SimdAesMix            0      0.00%     82.42% # Class of committed instruction (Count)
system.cpu.commit.committedInstType_0::SimdSha1Hash            0      0.00%     82.42% # Class of committed instruction (Count)
system.cpu.commit.committedInstType_0::SimdSha1Hash2            0      0.00%     82.42% # Class of committed instruction (Count)
system.cpu.commit.committedInstType_0::SimdSha256Hash            0      0.00%     82.42% # Class of committed instruction (Count)
system.cpu.commit.committedInstType_0::SimdSha256Hash2            0      0.00%     82.42% # Class of committed instruction (Count)
system.cpu.commit.committedInstType_0::SimdShaSigma2            0      0.00%     82.42% # Class of committed instruction (Count)
system.cpu.commit.committedInstType_0::SimdShaSigma3            0      0.00%     82.42% # Class of committed instruction (Count)
system.cpu.commit.committedInstType_0::SimdPredAlu            0      0.00%     82.42% # Class of committed instruction (Count)
system.cpu.commit.committedInstType_0::Matrix            0      0.00%     82.42% # Class of committed instruction (Count)
system.cpu.commit.committedInstType_0::MatrixMov            0      0.00%     82.42% # Class of committed instruction (Count)
system.cpu.commit.committedInstType_0::MatrixOP            0      0.00%     82.42% # Class of committed instruction (Count)
system.cpu.commit.committedInstType_0::MemRead        94082     13.09%     95.51% # Class of committed instruction (Count)
system.cpu.commit.committedInstType_0::MemWrite        13574      1.89%     97.40% # Class of committed instruction (Count)
system.cpu.commit.committedInstType_0::FloatMemRead         5317      0.74%     98.14% # Class of committed instruction (Count)
system.cpu.commit.committedInstType_0::FloatMemWrite        13375      1.86%    100.00% # Class of committed instruction (Count)
system.cpu.commit.committedInstType_0::IprAccess            0      0.00%    100.00% # Class of committed instruction (Count)
system.cpu.commit.committedInstType_0::InstPrefetch            0      0.00%    100.00% # Class of committed instruction (Count)
system.cpu.commit.committedInstType_0::SimdUnitStrideLoad            0      0.00%    100.00% # Class of committed instruction (Count)
system.cpu.commit.committedInstType_0::SimdUnitStrideStore            0      0.00%    100.00% # Class of committed instruction (Count)
system.cpu.commit.committedInstType_0::SimdUnitStrideMaskLoad            0      0.00%    100.00% # Class of committed instruction (Count)
system.cpu.commit.committedInstType_0::SimdUnitStrideMaskStore            0      0.00%    100.00% # Class of committed instruction (Count)
system.cpu.commit.committedInstType_0::SimdStridedLoad            0      0.00%    100.00% # Class of committed instruction (Count)
system.cpu.commit.committedInstType_0::SimdStridedStore            0      0.00%    100.00% # Class of committed instruction (Count)
system.cpu.commit.committedInstType_0::SimdIndexedLoad            0      0.00%    100.00% # Class of committed instruction (Count)
system.cpu.commit.committedInstType_0::SimdIndexedStore            0      0.00%    100.00% # Class of committed instruction (Count)
system.cpu.commit.committedInstType_0::SimdWholeRegisterLoad            0      0.00%    100.00% # Class of committed instruction (Count)
system.cpu.commit.committedInstType_0::SimdWholeRegisterStore            0      0.00%    100.00% # Class of committed instruction (Count)
system.cpu.commit.committedInstType_0::SimdUnitStrideFaultOnlyFirstLoad            0      0.00%    100.00% # Class of committed instruction (Count)
system.cpu.commit.committedInstType_0::SimdUnitStrideSegmentedLoad            0      0.00%    100.00% # Class of committed instruction (Count)
system.cpu.commit.committedInstType_0::SimdUnitStrideSegmentedStore            0      0.00%    100.00% # Class of committed instruction (Count)
system.cpu.commit.committedInstType_0::SimdUnitStrideSegmentedFaultOnlyFirstLoad            0      0.00%    100.00% # Class of committed instruction (Count)
system.cpu.commit.committedInstType_0::SimdStrideSegmentedLoad            0      0.00%    100.00% # Class of committed instruction (Count)
system.cpu.commit.committedInstType_0::SimdStrideSegmentedStore            0      0.00%    100.00% # Class of committed instruction (Count)
system.cpu.commit.committedInstType_0::SimdExt            0      0.00%    100.00% # Class of committed instruction (Count)
system.cpu.commit.committedInstType_0::SimdFloatExt            0      0.00%    100.00% # Class of committed instruction (Count)
system.cpu.commit.committedInstType_0::SimdConfig            0      0.00%    100.00% # Class of committed instruction (Count)
system.cpu.commit.committedInstType_0::SimdBf16Cvt            0      0.00%    100.00% # Class of committed instruction (Count)
system.cpu.commit.committedInstType_0::SimdBf16DotProd            0      0.00%    100.00% # Class of committed instruction (Count)
system.cpu.commit.committedInstType_0::SimdBf16MatMultAcc            0      0.00%    100.00% # Class of committed instruction (Count)
system.cpu.commit.committedInstType_0::SimdBf16MultAcc            0      0.00%    100.00% # Class of committed instruction (Count)
system.cpu.commit.committedInstType_0::Bf16Cvt            0      0.00%    100.00% # Class of committed instruction (Count)
system.cpu.commit.committedInstType_0::total       718647                       # Class of committed instruction (Count)
system.cpu.commit.commitEligibleSamples         63887                       # number cycles where commit BW limit reached (Cycle)
system.cpu.commitStats0.numInsts               363317                       # Number of instructions committed (thread level) (Count)
system.cpu.commitStats0.numOps                 718647                       # Number of ops (including micro ops) committed (thread level) (Count)
system.cpu.commitStats0.numInstsNotNOP         363317                       # Number of instructions committed excluding NOPs or prefetches (Count)
system.cpu.commitStats0.numOpsNotNOP           718647                       # Number of Ops (including micro ops) Simulated (Count)
system.cpu.commitStats0.numUserInsts           363317                       # Numbrer of instructions committed in user mode (Count)
system.cpu.commitStats0.numUserOps             718647                       # Number of ops committed in user mode (Count)
system.cpu.commitStats0.ratioUserInsts              1                       # Ratio of instructions committed in user mode (Ratio)
system.cpu.commitStats0.ratioUserOps                1                       # Ratio of ops committed in user mode (Ratio)
system.cpu.commitStats0.cpi                  2.154532                       # CPI: cycles per instruction (thread level) ((Cycle/Count))
system.cpu.commitStats0.ipc                  0.464138                       # IPC: instructions per cycle (thread level) ((Count/Cycle))
system.cpu.commitStats0.numMemRefs             126348                       # Number of memory references committed (Count)
system.cpu.commitStats0.numFpInsts              32540                       # Number of float instructions (Count)
system.cpu.commitStats0.numIntInsts            702466                       # Number of integer instructions (Count)
system.cpu.commitStats0.numLoadInsts            99399                       # Number of load instructions (Count)
system.cpu.commitStats0.numStoreInsts           26949                       # Number of store instructions (Count)
system.cpu.commitStats0.numVecInsts                 0                       # Number of vector instructions (Count)
system.cpu.commitStats0.committedInstType::No_OpClass         2072      0.29%      0.29% # Class of committed instruction. (Count)
[...]
system.mem_ctrl.requestorReadTotalLat::cpu.data    114624014                       # Per-requestor read total memory access latency (Tick)
system.mem_ctrl.requestorReadTotalLat::l2cache.prefetcher    188926752                       # Per-requestor read total memory access latency (Tick)
system.mem_ctrl.requestorWriteTotalLat::writebacks   1284439750                       # Per-requestor write total memory access latency (Tick)
system.mem_ctrl.requestorReadAvgLat::cpu.inst     41345.00                       # Per-requestor read average memory access latency ((Tick/Count))
system.mem_ctrl.requestorReadAvgLat::cpu.data     48120.91                       # Per-requestor read average memory access latency ((Tick/Count))
system.mem_ctrl.requestorReadAvgLat::l2cache.prefetcher     71999.52                       # Per-requestor read average memory access latency ((Tick/Count))
system.mem_ctrl.requestorWriteAvgLat::writebacks   8562931.67                       # Per-requestor write average memory access latency ((Tick/Count))
system.mem_ctrl.dram.bytesRead::cpu.inst        97536                       # Number of bytes read from this memory (Byte)
system.mem_ctrl.dram.bytesRead::cpu.data        76224                       # Number of bytes read from this memory (Byte)
system.mem_ctrl.dram.bytesRead::l2cache.prefetcher        83968                       # Number of bytes read from this memory (Byte)
system.mem_ctrl.dram.bytesRead::total          257728                       # Number of bytes read from this memory (Byte)
system.mem_ctrl.dram.bytesInstRead::cpu.inst        97536                       # Number of instructions bytes read from this memory (Byte)
system.mem_ctrl.dram.bytesInstRead::total        97536                       # Number of instructions bytes read from this memory (Byte)
system.mem_ctrl.dram.bytesWritten::writebacks         4800                       # Number of bytes written to this memory (Byte)
system.mem_ctrl.dram.bytesWritten::total         4800                       # Number of bytes written to this memory (Byte)
system.mem_ctrl.dram.numReads::cpu.inst          1524                       # Number of read requests responded to by this memory (Count)
system.mem_ctrl.dram.numReads::cpu.data          1191                       # Number of read requests responded to by this memory (Count)
system.mem_ctrl.dram.numReads::l2cache.prefetcher         1312                       # Number of read requests responded to by this memory (Count)
system.mem_ctrl.dram.numReads::total             4027                       # Number of read requests responded to by this memory (Count)
system.mem_ctrl.dram.numWrites::writebacks           75                       # Number of write requests responded to by this memory (Count)
system.mem_ctrl.dram.numWrites::total              75                       # Number of write requests responded to by this memory (Count)
system.mem_ctrl.dram.bwRead::cpu.inst       498410147                       # Total read bandwidth from this memory ((Byte/Second))
system.mem_ctrl.dram.bwRead::cpu.data       389505568                       # Total read bandwidth from this memory ((Byte/Second))
system.mem_ctrl.dram.bwRead::l2cache.prefetcher    429077502                       # Total read bandwidth from this memory ((Byte/Second))
system.mem_ctrl.dram.bwRead::total         1316993218                       # Total read bandwidth from this memory ((Byte/Second))
system.mem_ctrl.dram.bwInstRead::cpu.inst    498410147                       # Instruction read bandwidth from this memory ((Byte/Second))
system.mem_ctrl.dram.bwInstRead::total      498410147                       # Instruction read bandwidth from this memory ((Byte/Second))
system.mem_ctrl.dram.bwWrite::writebacks     24528058                       # Write bandwidth from this memory ((Byte/Second))
system.mem_ctrl.dram.bwWrite::total          24528058                       # Write bandwidth from this memory ((Byte/Second))
system.mem_ctrl.dram.bwTotal::writebacks     24528058                       # Total bandwidth to/from this memory ((Byte/Second))
system.mem_ctrl.dram.bwTotal::cpu.inst      498410147                       # Total bandwidth to/from this memory ((Byte/Second))
system.mem_ctrl.dram.bwTotal::cpu.data      389505568                       # Total bandwidth to/from this memory ((Byte/Second))
system.mem_ctrl.dram.bwTotal::l2cache.prefetcher    429077502                       # Total bandwidth to/from this memory ((Byte/Second))
system.mem_ctrl.dram.bwTotal::total        1341521276                       # Total bandwidth to/from this memory ((Byte/Second))
system.mem_ctrl.dram.readBursts                  8052                       # Number of DRAM read bursts (Count)
system.mem_ctrl.dram.writeBursts                  127                       # Number of DRAM write bursts (Count)
system.mem_ctrl.dram.perBankRdBursts::0           642                       # Per bank write bursts (Count)
system.mem_ctrl.dram.perBankRdBursts::1           534                       # Per bank write bursts (Count)
system.mem_ctrl.dram.perBankRdBursts::2           522                       # Per bank write bursts (Count)
system.mem_ctrl.dram.perBankRdBursts::3           450                       # Per bank write bursts (Count)
system.mem_ctrl.dram.perBankRdBursts::4           514                       # Per bank write bursts (Count)
system.mem_ctrl.dram.perBankRdBursts::5           524                       # Per bank write bursts (Count)
system.mem_ctrl.dram.perBankRdBursts::6           456                       # Per bank write bursts (Count)
system.mem_ctrl.dram.perBankRdBursts::7           508                       # Per bank write bursts (Count)
system.mem_ctrl.dram.perBankRdBursts::8           442                       # Per bank write bursts (Count)
system.mem_ctrl.dram.perBankRdBursts::9           526                       # Per bank write bursts (Count)
system.mem_ctrl.dram.perBankRdBursts::10          544                       # Per bank write bursts (Count)
system.mem_ctrl.dram.perBankRdBursts::11          474                       # Per bank write bursts (Count)
system.mem_ctrl.dram.perBankRdBursts::12          470                       # Per bank write bursts (Count)
system.mem_ctrl.dram.perBankRdBursts::13          522                       # Per bank write bursts (Count)
system.mem_ctrl.dram.perBankRdBursts::14          438                       # Per bank write bursts (Count)
system.mem_ctrl.dram.perBankRdBursts::15          486                       # Per bank write bursts (Count)
system.mem_ctrl.dram.perBankWrBursts::0            20                       # Per bank write bursts (Count)
system.mem_ctrl.dram.perBankWrBursts::1             4                       # Per bank write bursts (Count)
system.mem_ctrl.dram.perBankWrBursts::2             4                       # Per bank write bursts (Count)
system.mem_ctrl.dram.perBankWrBursts::3             0                       # Per bank write bursts (Count)
system.mem_ctrl.dram.perBankWrBursts::4             0                       # Per bank write bursts (Count)
system.mem_ctrl.dram.perBankWrBursts::5             2                       # Per bank write bursts (Count)
system.mem_ctrl.dram.perBankWrBursts::6             2                       # Per bank write bursts (Count)
system.mem_ctrl.dram.perBankWrBursts::7            17                       # Per bank write bursts (Count)
system.mem_ctrl.dram.perBankWrBursts::8             0                       # Per bank write bursts (Count)
system.mem_ctrl.dram.perBankWrBursts::9            30                       # Per bank write bursts (Count)
system.mem_ctrl.dram.perBankWrBursts::10           10                       # Per bank write bursts (Count)
system.mem_ctrl.dram.perBankWrBursts::11            6                       # Per bank write bursts (Count)
system.mem_ctrl.dram.perBankWrBursts::12            2                       # Per bank write bursts (Count)
system.mem_ctrl.dram.perBankWrBursts::13            2                       # Per bank write bursts (Count)
system.mem_ctrl.dram.perBankWrBursts::14            8                       # Per bank write bursts (Count)
system.mem_ctrl.dram.perBankWrBursts::15           20                       # Per bank write bursts (Count)
system.mem_ctrl.dram.totQLat                268530332                       # Total ticks spent queuing (Tick)
system.mem_ctrl.dram.totBusLat               16104000                       # Total ticks spent in databus transfers (Tick)
system.mem_ctrl.dram.totMemAccLat           429570332                       # Total ticks spent from burst creation until serviced by the DRAM (Tick)
system.mem_ctrl.dram.avgQLat                 33349.52                       # Average queueing delay per DRAM burst ((Tick/Count))
system.mem_ctrl.dram.avgBusLat                2000.00                       # Average bus latency per DRAM burst ((Tick/Count))
system.mem_ctrl.dram.avgMemAccLat            53349.52                       # Average memory access latency per DRAM burst ((Tick/Count))
system.mem_ctrl.dram.readRowHits                 4907                       # Number of row buffer hits during reads (Count)
system.mem_ctrl.dram.writeRowHits                  93                       # Number of row buffer hits during writes (Count)
system.mem_ctrl.dram.readRowHitRate             60.94                       # Row buffer hit rate for reads (Ratio)
system.mem_ctrl.dram.writeRowHitRate            73.23                       # Row buffer hit rate for writes (Ratio)
system.mem_ctrl.dram.bytesPerActivate::samples         3179                       # Bytes accessed per row activation (Byte)
system.mem_ctrl.dram.bytesPerActivate::mean    82.330293                       # Bytes accessed per row activation (Byte)
system.mem_ctrl.dram.bytesPerActivate::gmean    72.912912                       # Bytes accessed per row activation (Byte)
system.mem_ctrl.dram.bytesPerActivate::stdev    61.608932                       # Bytes accessed per row activation (Byte)
system.mem_ctrl.dram.bytesPerActivate::0-63            8      0.25%      0.25% # Bytes accessed per row activation (Byte)
system.mem_ctrl.dram.bytesPerActivate::64-127         2827     88.93%     89.18% # Bytes accessed per row activation (Byte)
system.mem_ctrl.dram.bytesPerActivate::128-191           87      2.74%     91.92% # Bytes accessed per row activation (Byte)
system.mem_ctrl.dram.bytesPerActivate::192-255           93      2.93%     94.84% # Bytes accessed per row activation (Byte)
system.mem_ctrl.dram.bytesPerActivate::256-319           98      3.08%     97.92% # Bytes accessed per row activation (Byte)
system.mem_ctrl.dram.bytesPerActivate::320-383           21      0.66%     98.58% # Bytes accessed per row activation (Byte)
system.mem_ctrl.dram.bytesPerActivate::384-447           20      0.63%     99.21% # Bytes accessed per row activation (Byte)
system.mem_ctrl.dram.bytesPerActivate::448-511           17      0.53%     99.75% # Bytes accessed per row activation (Byte)
system.mem_ctrl.dram.bytesPerActivate::512-575            8      0.25%    100.00% # Bytes accessed per row activation (Byte)
system.mem_ctrl.dram.bytesPerActivate::total         3179                       # Bytes accessed per row activation (Byte)
system.mem_ctrl.dram.dramBytesRead             257664                       # Total bytes read (Byte)
system.mem_ctrl.dram.dramBytesWritten            4064                       # Total bytes written (Byte)
system.mem_ctrl.dram.avgRdBW              1316.666177                       # Average DRAM read bandwidth in MiBytes/s ((Byte/Second))
system.mem_ctrl.dram.avgWrBW                20.767089                       # Average DRAM write bandwidth in MiBytes/s ((Byte/Second))
system.mem_ctrl.dram.peakBW                  16000.00                       # Theoretical peak bandwidth in MiByte/s ((Byte/Second))
system.mem_ctrl.dram.busUtil                     8.36                       # Data bus utilization in percentage (Ratio)
system.mem_ctrl.dram.busUtilRead                 8.23                       # Data bus utilization in percentage for reads (Ratio)
system.mem_ctrl.dram.busUtilWrite                0.13                       # Data bus utilization in percentage for writes (Ratio)
system.mem_ctrl.dram.pageHitRate                61.13                       # Row buffer hit rate, read and write combined (Ratio)
system.mem_ctrl.dram.power_state.pwrStateResidencyTicks::UNDEFINED    195694250                       # Cumulative time (in ticks) in various power states (Tick)
system.mem_ctrl.dram.rank0.actEnergy                0                       # Energy for activate commands per rank (pJ) (Joule)
system.mem_ctrl.dram.rank0.preEnergy                0                       # Energy for precharge commands per rank (pJ) (Joule)
system.mem_ctrl.dram.rank0.readEnergy               0                       # Energy for read commands per rank (pJ) (Joule)
system.mem_ctrl.dram.rank0.writeEnergy              0                       # Energy for write commands per rank (pJ) (Joule)
system.mem_ctrl.dram.rank0.refreshEnergy            0                       # Energy for refresh commands per rank (pJ) (Joule)
system.mem_ctrl.dram.rank0.actBackEnergy            0                       # Energy for active background per rank (pJ) (Joule)
system.mem_ctrl.dram.rank0.preBackEnergy            0                       # Energy for precharge background per rank (pJ) (Joule)
system.mem_ctrl.dram.rank0.actPowerDownEnergy            0                       # Energy for active power-down per rank (pJ) (Joule)
system.mem_ctrl.dram.rank0.prePowerDownEnergy            0                       # Energy for precharge power-down per rank (pJ) (Joule)
system.mem_ctrl.dram.rank0.selfRefreshEnergy            0                       # Energy for self refresh per rank (pJ) (Joule)
system.mem_ctrl.dram.rank0.totalEnergy              0                       # Total energy per rank (pJ) (Joule)
system.mem_ctrl.dram.rank0.averagePower             0                       # Core power per rank (mW) (Watt)
system.mem_ctrl.dram.rank0.totalIdleTime            0                       # Total Idle time Per DRAM Rank (Tick)
system.mem_ctrl.dram.rank0.pwrStateTime::IDLE     78783798                       # Time in different power states (Tick)
system.mem_ctrl.dram.rank0.pwrStateTime::REF     11000000                       # Time in different power states (Tick)
system.mem_ctrl.dram.rank0.pwrStateTime::SREF            0                       # Time in different power states (Tick)
system.mem_ctrl.dram.rank0.pwrStateTime::PRE_PDN            0                       # Time in different power states (Tick)
system.mem_ctrl.dram.rank0.pwrStateTime::ACT    105910452                       # Time in different power states (Tick)
system.mem_ctrl.dram.rank0.pwrStateTime::ACT_PDN            0                       # Time in different power states (Tick)
system.mem_ctrl.power_state.pwrStateResidencyTicks::UNDEFINED    195694250                       # Cumulative time (in ticks) in various power states (Tick)
system.membus.transDist::ReadResp                3786                       # Transaction distribution (Count)
system.membus.transDist::WritebackDirty            75                       # Transaction distribution (Count)
system.membus.transDist::CleanEvict               262                       # Transaction distribution (Count)
system.membus.transDist::ReadExReq                241                       # Transaction distribution (Count)
system.membus.transDist::ReadExResp               241                       # Transaction distribution (Count)
system.membus.transDist::ReadSharedReq           3786                       # Transaction distribution (Count)
system.membus.pktCount_system.l2cache.mem_side_port::system.mem_ctrl.port         8391                       # Packet count per connected requestor and responder (Count)
system.membus.pktCount_system.l2cache.mem_side_port::total         8391                       # Packet count per connected requestor and responder (Count)
system.membus.pktCount::total                    8391                       # Packet count per connected requestor and responder (Count)
system.membus.pktSize_system.l2cache.mem_side_port::system.mem_ctrl.port       262528                       # Cumulative packet size per connected requestor and responder (Byte)
system.membus.pktSize_system.l2cache.mem_side_port::total       262528                       # Cumulative packet size per connected requestor and responder (Byte)
system.membus.pktSize::total                   262528                       # Cumulative packet size per connected requestor and responder (Byte)
system.membus.snoops                                0                       # Total snoops (Count)
system.membus.snoopTraffic                          0                       # Total snoop traffic (Byte)
system.membus.snoopFanout::samples               4027                       # Request fanout histogram (Count)
system.membus.snoopFanout::mean                     0                       # Request fanout histogram (Count)
system.membus.snoopFanout::stdev                    0                       # Request fanout histogram (Count)
system.membus.snoopFanout::underflows               0      0.00%      0.00% # Request fanout histogram (Count)
system.membus.snoopFanout::0                     4027    100.00%    100.00% # Request fanout histogram (Count)
system.membus.snoopFanout::1                        0      0.00%    100.00% # Request fanout histogram (Count)
system.membus.snoopFanout::overflows                0      0.00%    100.00% # Request fanout histogram (Count)
system.membus.snoopFanout::min_value                0                       # Request fanout histogram (Count)
system.membus.snoopFanout::max_value                0                       # Request fanout histogram (Count)
system.membus.snoopFanout::total                 4027                       # Request fanout histogram (Count)
system.membus.power_state.pwrStateResidencyTicks::UNDEFINED    195694250                       # Cumulative time (in ticks) in various power states (Tick)
system.membus.reqLayer0.occupancy             1421908                       # Layer occupancy (ticks) (Tick)
system.membus.reqLayer0.utilization               0.0                       # Layer utilization (Ratio)
system.membus.respLayer0.occupancy            5068834                       # Layer occupancy (ticks) (Tick)
system.membus.respLayer0.utilization              0.0                       # Layer utilization (Ratio)
system.membus.snoop_filter.totRequests           4364                       # Total number of requests made to the snoop filter. (Count)
system.membus.snoop_filter.hitSingleRequests          337                       # Number of requests hitting in the snoop filter with a single holder of the requested data. (Count)
system.membus.snoop_filter.hitMultiRequests            0                       # Number of requests hitting in the snoop filter with multiple (>1) holders of the requested data. (Count)
system.membus.snoop_filter.totSnoops                0                       # Total number of snoops made to the snoop filter. (Count)
system.membus.snoop_filter.hitSingleSnoops            0                       # Number of snoops hitting in the snoop filter with a single holder of the requested data. (Count)
system.membus.snoop_filter.hitMultiSnoops            0                       # Number of snoops hitting in the snoop filter with multiple (>1) holders of the requested data. (Count)
system.workload.inst.arm                            0                       # number of arm instructions executed (Count)
system.workload.inst.quiesce                        0                       # number of quiesce instructions executed (Count)

---------- End Simulation Statistics   ----------
