
---------- Begin Simulation Statistics ----------
simSeconds                                   0.001070                       # Number of seconds simulated (Second)
simTicks                                   1069700250                       # Number of ticks simulated (Tick)
finalTick                                  1069700250                       # Number of ticks from beginning of simulation (restored from checkpoints and never reset) (Tick)
simFreq                                  1000000000000                       # The number of ticks per simulated second ((Tick/Second))
hostSeconds                                     48.43                       # Real time elapsed on the host (Second)
hostTickRate                                 22086239                       # The number of ticks simulated per host second (ticks/s) ((Tick/Second))
hostMemory                                     805696                       # Number of bytes of host memory used (Byte)
simInsts                                      6810923                       # Number of instructions simulated (Count)
simOps                                       13394130                       # Number of ops (including micro ops) simulated (Count)
hostInstRate                                   140625                       # Simulator instruction rate (inst/s) ((Count/Second))
hostOpRate                                     276549                       # Simulator op (including micro ops) rate (op/s) ((Count/Second))
system.clk_domain.clock                           250                       # Clock period in ticks (Tick)
system.clk_domain.voltage_domain.voltage            1                       # Voltage in Volts (Volt)
system.cpu.numCycles                          4278802                       # Number of cpu cycles simulated (Cycle)
system.cpu.cpi                               0.628226                       # CPI: cycles per instruction (core level) ((Cycle/Count))
system.cpu.ipc                               1.591783                       # IPC: instructions per cycle (core level) ((Count/Cycle))
system.cpu.numWorkItemsStarted                      0                       # Number of work items this cpu started (Count)
system.cpu.numWorkItemsCompleted                    0                       # Number of work items this cpu completed (Count)
system.cpu.instsAdded                        14238042                       # Number of instructions added to the IQ (excludes non-spec) (Count)
system.cpu.nonSpecInstsAdded                       69                       # Number of non-speculative instructions added to the IQ (Count)
system.cpu.instsIssued                       13996331                       # Number of instructions issued (Count)
system.cpu.squashedInstsIssued                  10673                       # Number of squashed instructions issued (Count)
system.cpu.squashedInstsExamined               843975                       # Number of squashed instructions iterated over during squash; mainly for profiling (Count)
system.cpu.squashedOperandsExamined           1355165                       # Number of squashed operands that are examined and possibly removed from graph (Count)
system.cpu.squashedNonSpecRemoved                  33                       # Number of squashed non-spec instructions that were removed (Count)
system.cpu.numIssuedDist::samples             3977876                       # Number of insts issued each cycle (Count)
system.cpu.numIssuedDist::mean               3.518544                       # Number of insts issued each cycle (Count)
system.cpu.numIssuedDist::stdev              2.462520                       # Number of insts issued each cycle (Count)
system.cpu.numIssuedDist::underflows                0      0.00%      0.00% # Number of insts issued each cycle (Count)
system.cpu.numIssuedDist::0                    774667     19.47%     19.47% # Number of insts issued each cycle (Count)
system.cpu.numIssuedDist::1                    247679      6.23%     25.70% # Number of insts issued each cycle (Count)
system.cpu.numIssuedDist::2                    439704     11.05%     36.75% # Number of insts issued each cycle (Count)
system.cpu.numIssuedDist::3                    480268     12.07%     48.83% # Number of insts issued each cycle (Count)
system.cpu.numIssuedDist::4                    482327     12.13%     60.95% # Number of insts issued each cycle (Count)
system.cpu.numIssuedDist::5                    408062     10.26%     71.21% # Number of insts issued each cycle (Count)
system.cpu.numIssuedDist::6                    684005     17.20%     88.41% # Number of insts issued each cycle (Count)
system.cpu.numIssuedDist::7                    334520      8.41%     96.82% # Number of insts issued each cycle (Count)
system.cpu.numIssuedDist::8                    126644      3.18%    100.00% # Number of insts issued each cycle (Count)
system.cpu.numIssuedDist::overflows                 0      0.00%    100.00% # Number of insts issued each cycle (Count)
system.cpu.numIssuedDist::min_value                 0                       # Number of insts issued each cycle (Count)
system.cpu.numIssuedDist::max_value                 8                       # Number of insts issued each cycle (Count)
system.cpu.numIssuedDist::total               3977876                       # Number of insts issued each cycle (Count)
system.cpu.statFuBusy::No_OpClass                   0      0.00%      0.00% # attempts to use FU when none available (Count)
system.cpu.statFuBusy::IntAlu                  375048     91.84%     91.84% # attempts to use FU when none available (Count)
system.cpu.statFuBusy::IntMult                      0      0.00%     91.84% # attempts to use FU when none available (Count)
system.cpu.statFuBusy::IntDiv                       0      0.00%     91.84% # attempts to use FU when none available (Count)
system.cpu.statFuBusy::FloatAdd                     0      0.00%     91.84% # attempts to use FU when none available (Count)
system.cpu.statFuBusy::FloatCmp                     0      0.00%     91.84% # attempts to use FU when none available (Count)
system.cpu.statFuBusy::FloatCvt                     0      0.00%     91.84% # attempts to use FU when none available (Count)
system.cpu.statFuBusy::FloatMult                    0      0.00%     91.84% # attempts to use FU when none available (Count)
system.cpu.statFuBusy::FloatMultAcc                 0      0.00%     91.84% # attempts to use FU when none available (Count)
system.cpu.statFuBusy::FloatDiv                     0      0.00%     91.84% # attempts to use FU when none available (Count)
system.cpu.statFuBusy::FloatMisc                    0      0.00%     91.84% # attempts to use FU when none available (Count)
system.cpu.statFuBusy::FloatSqrt                    0      0.00%     91.84% # attempts to use FU when none available (Count)
system.cpu.statFuBusy::SimdAdd                      0      0.00%     91.84% # attempts to use FU when none available (Count)
system.cpu.statFuBusy::SimdAddAcc                   0      0.00%     91.84% # attempts to use FU when none available (Count)
system.cpu.statFuBusy::SimdAlu                   7985      1.96%     93.79% # attempts to use FU when none available (Count)
system.cpu.statFuBusy::SimdCmp                     15      0.00%     93.80% # attempts to use FU when none available (Count)
system.cpu.statFuBusy::SimdCvt                   4212      1.03%     94.83% # attempts to use FU when none available (Count)
system.cpu.statFuBusy::SimdMisc                  2828      0.69%     95.52% # attempts to use FU when none available (Count)
system.cpu.statFuBusy::SimdMult                     0      0.00%     95.52% # attempts to use FU when none available (Count)
system.cpu.statFuBusy::SimdMultAcc                  0      0.00%     95.52% # attempts to use FU when none available (Count)
system.cpu.statFuBusy::SimdMatMultAcc               0      0.00%     95.52% # attempts to use FU when none available (Count)
system.cpu.statFuBusy::SimdShift                   15      0.00%     95.53% # attempts to use FU when none available (Count)
system.cpu.statFuBusy::SimdShiftAcc                 0      0.00%     95.53% # attempts to use FU when none available (Count)
system.cpu.statFuBusy::SimdDiv                      0      0.00%     95.53% # attempts to use FU when none available (Count)
system.cpu.statFuBusy::SimdSqrt                     0      0.00%     95.53% # attempts to use FU when none available (Count)
system.cpu.statFuBusy::SimdFloatAdd                 0      0.00%     95.53% # attempts to use FU when none available (Count)
system.cpu.statFuBusy::SimdFloatAlu                 0      0.00%     95.53% # attempts to use FU when none available (Count)
system.cpu.statFuBusy::SimdFloatCmp                 0      0.00%     95.53% # attempts to use FU when none available (Count)
system.cpu.statFuBusy::SimdFloatCvt                 1      0.00%     95.53% # attempts to use FU when none available (Count)
system.cpu.statFuBusy::SimdFloatDiv                 0      0.00%     95.53% # attempts to use FU when none available (Count)
system.cpu.statFuBusy::SimdFloatMisc                0      0.00%     95.53% # attempts to use FU when none available (Count)
system.cpu.statFuBusy::SimdFloatMult               26      0.01%     95.53% # attempts to use FU when none available (Count)
system.cpu.statFuBusy::SimdFloatMultAcc             0      0.00%     95.53% # attempts to use FU when none available (Count)
system.cpu.statFuBusy::SimdFloatMatMultAcc            0      0.00%     95.53% # attempts to use FU when none available (Count)
system.cpu.statFuBusy::SimdFloatSqrt                0      0.00%     95.53% # attempts to use FU when none available (Count)
system.cpu.statFuBusy::SimdReduceAdd                0      0.00%     95.53% # attempts to use FU when none available (Count)
system.cpu.statFuBusy::SimdReduceAlu                0      0.00%     95.53% # attempts to use FU when none available (Count)
system.cpu.statFuBusy::SimdReduceCmp                0      0.00%     95.53% # attempts to use FU when none available (Count)
system.cpu.statFuBusy::SimdFloatReduceAdd            0      0.00%     95.53% # attempts to use FU when none available (Count)
system.cpu.statFuBusy::SimdFloatReduceCmp            0      0.00%     95.53% # attempts to use FU when none available (Count)
system.cpu.statFuBusy::SimdAes                      0      0.00%     95.53% # attempts to use FU when none available (Count)
system.cpu.statFuBusy::SimdAesMix                   0      0.00%     95.53% # attempts to use FU when none available (Count)
system.cpu.statFuBusy::SimdSha1Hash                 0      0.00%     95.53% # attempts to use FU when none available (Count)
system.cpu.statFuBusy::SimdSha1Hash2                0      0.00%     95.53% # attempts to use FU when none available (Count)
system.cpu.statFuBusy::SimdSha256Hash               0      0.00%     95.53% # attempts to use FU when none available (Count)
system.cpu.statFuBusy::SimdSha256Hash2              0      0.00%     95.53% # attempts to use FU when none available (Count)
system.cpu.statFuBusy::SimdShaSigma2                0      0.00%     95.53% # attempts to use FU when none available (Count)
system.cpu.statFuBusy::SimdShaSigma3                0      0.00%     95.53% # attempts to use FU when none available (Count)
system.cpu.statFuBusy::SimdPredAlu                  0      0.00%     95.53% # attempts to use FU when none available (Count)
system.cpu.statFuBusy::Matrix                       0      0.00%     95.53% # attempts to use FU when none available (Count)
system.cpu.statFuBusy::MatrixMov                    0      0.00%     95.53% # attempts to use FU when none available (Count)
system.cpu.statFuBusy::MatrixOP                     0      0.00%     95.53% # attempts to use FU when none available (Count)
system.cpu.statFuBusy::MemRead                  11302      2.77%     98.30% # attempts to use FU when none available (Count)
system.cpu.statFuBusy::MemWrite                  2015      0.49%     98.79% # attempts to use FU when none available (Count)
system.cpu.statFuBusy::FloatMemRead              2863      0.70%     99.49% # attempts to use FU when none available (Count)
system.cpu.statFuBusy::FloatMemWrite             2065      0.51%    100.00% # attempts to use FU when none available (Count)
system.cpu.statFuBusy::IprAccess                    0      0.00%    100.00% # attempts to use FU when none available (Count)
system.cpu.statFuBusy::InstPrefetch                 0      0.00%    100.00% # attempts to use FU when none available (Count)
system.cpu.statFuBusy::SimdUnitStrideLoad            0      0.00%    100.00% # attempts to use FU when none available (Count)
system.cpu.statFuBusy::SimdUnitStrideStore            0      0.00%    100.00% # attempts to use FU when none available (Count)
system.cpu.statFuBusy::SimdUnitStrideMaskLoad            0      0.00%    100.00% # attempts to use FU when none available (Count)
system.cpu.statFuBusy::SimdUnitStrideMaskStore            0      0.00%    100.00% # attempts to use FU when none available (Count)
system.cpu.statFuBusy::SimdStridedLoad              0      0.00%    100.00% # attempts to use FU when none available (Count)
system.cpu.statFuBusy::SimdStridedStore             0      0.00%    100.00% # attempts to use FU when none available (Count)
system.cpu.statFuBusy::SimdIndexedLoad              0      0.00%    100.00% # attempts to use FU when none available (Count)
system.cpu.statFuBusy::SimdIndexedStore             0      0.00%    100.00% # attempts to use FU when none available (Count)
system.cpu.statFuBusy::SimdWholeRegisterLoad            0      0.00%    100.00% # attempts to use FU when none available (Count)
system.cpu.statFuBusy::SimdWholeRegisterStore            0      0.00%    100.00% # attempts to use FU when none available (Count)
system.cpu.statFuBusy::SimdUnitStrideFaultOnlyFirstLoad            0      0.00%    100.00% # attempts to use FU when none available (Count)
system.cpu.statFuBusy::SimdUnitStrideSegmentedLoad            0      0.00%    100.00% # attempts to use FU when none available (Count)
system.cpu.statFuBusy::SimdUnitStrideSegmentedStore            0      0.00%    100.00% # attempts to use FU when none available (Count)
system.cpu.statFuBusy::SimdUnitStrideSegmentedFaultOnlyFirstLoad            0      0.00%    100.00% # attempts to use FU when none available (Count)
system.cpu.statFuBusy::SimdStrideSegmentedLoad            0      0.00%    100.00% # attempts to use FU when none available (Count)
system.cpu.statFuBusy::SimdStrideSegmentedStore            0      0.00%    100.00% # attempts to use FU when none available (Count)
system.cpu.statFuBusy::SimdExt                      0      0.00%    100.00% # attempts to use FU when none available (Count)
system.cpu.statFuBusy::SimdFloatExt                 0      0.00%    100.00% # attempts to use FU when none available (Count)
system.cpu.statFuBusy::SimdConfig                   0      0.00%    100.00% # attempts to use FU when none available (Count)
system.cpu.statFuBusy::SimdBf16Cvt                  0      0.00%    100.00% # attempts to use FU when none available (Count)
system.cpu.statFuBusy::SimdBf16DotProd              0      0.00%    100.00% # attempts to use FU when none available (Count)
system.cpu.statFuBusy::SimdBf16MatMultAcc            0      0.00%    100.00% # attempts to use FU when none available (Count)
system.cpu.statFuBusy::SimdBf16MultAcc              0      0.00%    100.00% # attempts to use FU when none available (Count)
system.cpu.statFuBusy::Bf16Cvt                      0      0.00%    100.00% # attempts to use FU when none available (Count)
system.cpu.issuedInstType_0::No_OpClass        181402      1.30%      1.30% # Number of instructions issued per FU type, per thread (Count)
system.cpu.issuedInstType_0::IntAlu          11234758     80.27%     81.57% # Number of instructions issued per FU type, per thread (Count)
system.cpu.issuedInstType_0::IntMult            18076      0.13%     81.69% # Number of instructions issued per FU type, per thread (Count)
system.cpu.issuedInstType_0::IntDiv            139332      1.00%     82.69% # Number of instructions issued per FU type, per thread (Count)
system.cpu.issuedInstType_0::FloatAdd           18145      0.13%     82.82% # Number of instructions issued per FU type, per thread (Count)
system.cpu.issuedInstType_0::FloatCmp               0      0.00%     82.82% # Number of instructions issued per FU type, per thread (Count)
system.cpu.issuedInstType_0::FloatCvt               0      0.00%     82.82% # Number of instructions issued per FU type, per thread (Count)
system.cpu.issuedInstType_0::FloatMult              0      0.00%     82.82% # Number of instructions issued per FU type, per thread (Count)
system.cpu.issuedInstType_0::FloatMultAcc            0      0.00%     82.82% # Number of instructions issued per FU type, per thread (Count)
system.cpu.issuedInstType_0::FloatDiv               0      0.00%     82.82% # Number of instructions issued per FU type, per thread (Count)
system.cpu.issuedInstType_0::FloatMisc              0      0.00%     82.82% # Number of instructions issued per FU type, per thread (Count)
system.cpu.issuedInstType_0::FloatSqrt              0      0.00%     82.82% # Number of instructions issued per FU type, per thread (Count)
system.cpu.issuedInstType_0::SimdAdd              661      0.00%     82.82% # Number of instructions issued per FU type, per thread (Count)
system.cpu.issuedInstType_0::SimdAddAcc             0      0.00%     82.82% # Number of instructions issued per FU type, per thread (Count)
system.cpu.issuedInstType_0::SimdAlu           107793      0.77%     83.59% # Number of instructions issued per FU type, per thread (Count)
system.cpu.issuedInstType_0::SimdCmp              402      0.00%     83.60% # Number of instructions issued per FU type, per thread (Count)
system.cpu.issuedInstType_0::SimdCvt            89612      0.64%     84.24% # Number of instructions issued per FU type, per thread (Count)
system.cpu.issuedInstType_0::SimdMisc          106261      0.76%     85.00% # Number of instructions issued per FU type, per thread (Count)
system.cpu.issuedInstType_0::SimdMult               0      0.00%     85.00% # Number of instructions issued per FU type, per thread (Count)
system.cpu.issuedInstType_0::SimdMultAcc            0      0.00%     85.00% # Number of instructions issued per FU type, per thread (Count)
system.cpu.issuedInstType_0::SimdMatMultAcc            0      0.00%     85.00% # Number of instructions issued per FU type, per thread (Count)
system.cpu.issuedInstType_0::SimdShift            646      0.00%     85.00% # Number of instructions issued per FU type, per thread (Count)
system.cpu.issuedInstType_0::SimdShiftAcc            0      0.00%     85.00% # Number of instructions issued per FU type, per thread (Count)
system.cpu.issuedInstType_0::SimdDiv                0      0.00%     85.00% # Number of instructions issued per FU type, per thread (Count)
system.cpu.issuedInstType_0::SimdSqrt               0      0.00%     85.00% # Number of instructions issued per FU type, per thread (Count)
system.cpu.issuedInstType_0::SimdFloatAdd         4746      0.03%     85.04% # Number of instructions issued per FU type, per thread (Count)
system.cpu.issuedInstType_0::SimdFloatAlu            0      0.00%     85.04% # Number of instructions issued per FU type, per thread (Count)
system.cpu.issuedInstType_0::SimdFloatCmp            0      0.00%     85.04% # Number of instructions issued per FU type, per thread (Count)
system.cpu.issuedInstType_0::SimdFloatCvt         1976      0.01%     85.05% # Number of instructions issued per FU type, per thread (Count)
system.cpu.issuedInstType_0::SimdFloatDiv            0      0.00%     85.05% # Number of instructions issued per FU type, per thread (Count)
system.cpu.issuedInstType_0::SimdFloatMisc            0      0.00%     85.05% # Number of instructions issued per FU type, per thread (Count)
system.cpu.issuedInstType_0::SimdFloatMult         1675      0.01%     85.06% # Number of instructions issued per FU type, per thread (Count)
system.cpu.issuedInstType_0::SimdFloatMultAcc            0      0.00%     85.06% # Number of instructions issued per FU type, per thread (Count)
system.cpu.issuedInstType_0::SimdFloatMatMultAcc            0      0.00%     85.06% # Number of instructions issued per FU type, per thread (Count)
system.cpu.issuedInstType_0::SimdFloatSqrt            0      0.00%     85.06% # Number of instructions issued per FU type, per thread (Count)
system.cpu.issuedInstType_0::SimdReduceAdd            0      0.00%     85.06% # Number of instructions issued per FU type, per thread (Count)
system.cpu.issuedInstType_0::SimdReduceAlu            0      0.00%     85.06% # Number of instructions issued per FU type, per thread (Count)
system.cpu.issuedInstType_0::SimdReduceCmp            0      0.00%     85.06% # Number of instructions issued per FU type, per thread (Count)
system.cpu.issuedInstType_0::SimdFloatReduceAdd            0      0.00%     85.06% # Number of instructions issued per FU type, per thread (Count)
system.cpu.issuedInstType_0::SimdFloatReduceCmp            0      0.00%     85.06% # Number of instructions issued per FU type, per thread (Count)
system.cpu.issuedInstType_0::SimdAes                0      0.00%     85.06% # Number of instructions issued per FU type, per thread (Count)
system.cpu.issuedInstType_0::SimdAesMix             0      0.00%     85.06% # Number of instructions issued per FU type, per thread (Count)
system.cpu.issuedInstType_0::SimdSha1Hash            0      0.00%     85.06% # Number of instructions issued per FU type, per thread (Count)
system.cpu.issuedInstType_0::SimdSha1Hash2            0      0.00%     85.06% # Number of instructions issued per FU type, per thread (Count)
system.cpu.issuedInstType_0::SimdSha256Hash            0      0.00%     85.06% # Number of instructions issued per FU type, per thread (Count)
system.cpu.issuedInstType_0::SimdSha256Hash2            0      0.00%     85.06% # Number of instructions issued per FU type, per thread (Count)
system.cpu.issuedInstType_0::SimdShaSigma2            0      0.00%     85.06% # Number of instructions issued per FU type, per thread (Count)
system.cpu.issuedInstType_0::SimdShaSigma3            0      0.00%     85.06% # Number of instructions issued per FU type, per thread (Count)
system.cpu.issuedInstType_0::SimdPredAlu            0      0.00%     85.06% # Number of instructions issued per FU type, per thread (Count)
system.cpu.issuedInstType_0::Matrix                 0      0.00%     85.06% # Number of instructions issued per FU type, per thread (Count)
system.cpu.issuedInstType_0::MatrixMov              0      0.00%     85.06% # Number of instructions issued per FU type, per thread (Count)
system.cpu.issuedInstType_0::MatrixOP               0      0.00%     85.06% # Number of instructions issued per FU type, per thread (Count)
system.cpu.issuedInstType_0::MemRead          1360029      9.72%     94.78% # Number of instructions issued per FU type, per thread (Count)
system.cpu.issuedInstType_0::MemWrite          620379      4.43%     99.21% # Number of instructions issued per FU type, per thread (Count)
system.cpu.issuedInstType_0::FloatMemRead        85163      0.61%     99.82% # Number of instructions issued per FU type, per thread (Count)
system.cpu.issuedInstType_0::FloatMemWrite        25275      0.18%    100.00% # Number of instructions issued per FU type, per thread (Count)
system.cpu.issuedInstType_0::IprAccess              0      0.00%    100.00% # Number of instructions issued per FU type, per thread (Count)
system.cpu.issuedInstType_0::InstPrefetch            0      0.00%    100.00% # Number of instructions issued per FU type, per thread (Count)
system.cpu.issuedInstType_0::SimdUnitStrideLoad            0      0.00%    100.00% # Number of instructions issued per FU type, per thread (Count)
system.cpu.issuedInstType_0::SimdUnitStrideStore            0      0.00%    100.00% # Number of instructions issued per FU type, per thread (Count)
system.cpu.issuedInstType_0::SimdUnitStrideMaskLoad            0      0.00%    100.00% # Number of instructions issued per FU type, per thread (Count)
system.cpu.issuedInstType_0::SimdUnitStrideMaskStore            0      0.00%    100.00% # Number of instructions issued per FU type, per thread (Count)
system.cpu.issuedInstType_0::SimdStridedLoad            0      0.00%    100.00% # Number of instructions issued per FU type, per thread (Count)
system.cpu.issuedInstType_0::SimdStridedStore            0      0.00%    100.00% # Number of instructions issued per FU type, per thread (Count)
system.cpu.issuedInstType_0::SimdIndexedLoad            0      0.00%    100.00% # Number of instructions issued per FU type, per thread (Count)
system.cpu.issuedInstType_0::SimdIndexedStore            0      0.00%    100.00% # Number of instructions issued per FU type, per thread (Count)
system.cpu.issuedInstType_0::SimdWholeRegisterLoad            0      0.00%    100.00% # Number of instructions issued per FU type, per thread (Count)
system.cpu.issuedInstType_0::SimdWholeRegisterStore            0      0.00%    100.00% # Number of instructions issued per FU type, per thread (Count)
system.cpu.issuedInstType_0::SimdUnitStrideFaultOnlyFirstLoad            0      0.00%    100.00% # Number of instructions issued per FU type, per thread (Count)
system.cpu.issuedInstType_0::SimdUnitStrideSegmentedLoad            0      0.00%    100.00% # Number of instructions issued per FU type, per thread (Count)
system.cpu.issuedInstType_0::SimdUnitStrideSegmentedStore            0      0.00%    100.00% # Number of instructions issued per FU type, per thread (Count)
system.cpu.issuedInstType_0::SimdUnitStrideSegmentedFaultOnlyFirstLoad            0      0.00%    100.00% # Number of instructions issued per FU type, per thread (Count)
system.cpu.issuedInstType_0::SimdStrideSegmentedLoad            0      0.00%    100.00% # Number of instructions issued per FU type, per thread (Count)
system.cpu.issuedInstType_0::SimdStrideSegmentedStore            0      0.00%    100.00% # Number of instructions issued per FU type, per thread (Count)
system.cpu.issuedInstType_0::SimdExt                0      0.00%    100.00% # Number of instructions issued per FU type, per thread (Count)
system.cpu.issuedInstType_0::SimdFloatExt            0      0.00%    100.00% # Number of instructions issued per FU type, per thread (Count)
system.cpu.issuedInstType_0::SimdConfig             0      0.00%    100.00% # Number of instructions issued per FU type, per thread (Count)
system.cpu.issuedInstType_0::SimdBf16Cvt            0      0.00%    100.00% # Number of instructions issued per FU type, per thread (Count)
system.cpu.issuedInstType_0::SimdBf16DotProd            0      0.00%    100.00% # Number of instructions issued per FU type, per thread (Count)
system.cpu.issuedInstType_0::SimdBf16MatMultAcc            0      0.00%    100.00% # Number of instructions issued per FU type, per thread (Count)
system.cpu.issuedInstType_0::SimdBf16MultAcc            0      0.00%    100.00% # Number of instructions issued per FU type, per thread (Count)
system.cpu.issuedInstType_0::Bf16Cvt                0      0.00%    100.00% # Number of instructions issued per FU type, per thread (Count)
system.cpu.issuedInstType_0::total           13996331                       # Number of instructions issued per FU type, per thread (Count)
system.cpu.issueRate                         3.271086                       # Inst issue rate ((Count/Cycle))
system.cpu.fuBusy                              408375                       # FU busy when requested (Count)
system.cpu.fuBusyRate                        0.029177                       # FU busy rate (busy events/executed inst) ((Count/Count))
system.cpu.intInstQueueReads                 31422853                       # Number of integer instruction queue reads (Count)
system.cpu.intInstQueueWrites                14582668                       # Number of integer instruction queue writes (Count)
system.cpu.intInstQueueWakeupAccesses        13437983                       # Number of integer instruction queue wakeup accesses (Count)
system.cpu.fpInstQueueReads                    966733                       # Number of floating instruction queue reads (Count)
system.cpu.fpInstQueueWrites                   499542                       # Number of floating instruction queue writes (Count)
system.cpu.fpInstQueueWakeupAccesses           468958                       # Number of floating instruction queue wakeup accesses (Count)
system.cpu.vecInstQueueReads                        0                       # Number of vector instruction queue reads (Count)
system.cpu.vecInstQueueWrites                       0                       # Number of vector instruction queue writes (Count)
system.cpu.vecInstQueueWakeupAccesses               0                       # Number of vector instruction queue wakeup accesses (Count)
system.cpu.intAluAccesses                    13729997                       # Number of integer alu accesses (Count)
system.cpu.fpAluAccesses                       493307                       # Number of floating point alu accesses (Count)
system.cpu.vecAluAccesses                           0                       # Number of vector alu accesses (Count)
system.cpu.numRecvResp                        1881547                       # Number of received responses (Count)
system.cpu.numRecvRespBytes                  11152327                       # Number of received response bytes (Byte)
system.cpu.recvRespAvgBW                         2.61                       # Average bandwidth of received responses ((Byte/Cycle))
system.cpu.recvRespAvgSize                       5.93                       # Average packet size per received response ((Byte/Count))
system.cpu.recvRespAvgRate                       0.44                       # Average rate of received responses per cycle ((Count/Cycle))
system.cpu.recvRespAvgRetryRate                  0.00                       # Average retry rate per received response ((Count/Count))
system.cpu.numSendRetryResp                         0                       # Number of retry responses sent (Count)
system.cpu.numSquashedInsts                     70174                       # Number of squashed instructions skipped in execute (Count)
system.cpu.numSwp                                   0                       # Number of swp insts executed (Count)
system.cpu.timesIdled                            1285                       # Number of times that the entire CPU went into an idle state and unscheduled itself (Count)
system.cpu.idleCycles                          300926                       # Total number of cycles that the CPU has spent unscheduled due to idling (Cycle)
system.cpu.MemDepUnit__0.insertedLoads        1455582                       # Number of loads inserted to the mem dependence unit. (Count)
system.cpu.MemDepUnit__0.insertedStores        657160                       # Number of stores inserted to the mem dependence unit. (Count)
system.cpu.MemDepUnit__0.conflictingLoads        37876                       # Number of conflicting loads. (Count)
system.cpu.MemDepUnit__0.conflictingStores         8779                       # Number of conflicting stores. (Count)
system.cpu.MemDepUnit__1.insertedLoads              0                       # Number of loads inserted to the mem dependence unit. (Count)
system.cpu.MemDepUnit__1.insertedStores             0                       # Number of stores inserted to the mem dependence unit. (Count)
system.cpu.MemDepUnit__1.conflictingLoads            0                       # Number of conflicting loads. (Count)
system.cpu.MemDepUnit__1.conflictingStores            0                       # Number of conflicting stores. (Count)
system.cpu.MemDepUnit__2.insertedLoads              0                       # Number of loads inserted to the mem dependence unit. (Count)
system.cpu.MemDepUnit__2.insertedStores             0                       # Number of stores inserted to the mem dependence unit. (Count)
system.cpu.MemDepUnit__2.conflictingLoads            0                       # Number of conflicting loads. (Count)
system.cpu.MemDepUnit__2.conflictingStores            0                       # Number of conflicting stores. (Count)
system.cpu.MemDepUnit__3.insertedLoads              0                       # Number of loads inserted to the mem dependence unit. (Count)
system.cpu.MemDepUnit__3.insertedStores             0                       # Number of stores inserted to the mem dependence unit. (Count)
system.cpu.MemDepUnit__3.conflictingLoads            0                       # Number of conflicting loads. (Count)
system.cpu.MemDepUnit__3.conflictingStores            0                       # Number of conflicting stores. (Count)
system.cpu.bac.fetchTargets                         0                       # Number of fetch targets created  (Count)
system.cpu.bac.branches                       1771072                       # Number of branches that BAC encountered (Count)
system.cpu.bac.predTakenBranches               965282                       # Number of branches that BAC predicted taken. (Count)
system.cpu.bac.branchesNotLastuOp                   0                       # Number of branches that fetch encountered which are not the last uOp within a macrooperation. Jump to itself. (Count)
system.cpu.bac.branchMisspredict                32135                       # Number of mispredicted branches (Count)
system.cpu.bac.noBranchMisspredict               1469                       # Number of non-branch instructions mispredicted (Count)
system.cpu.bac.squashBranchDecode                3908                       # Number of branches squashed from decode (Count)
system.cpu.bac.squashBranchCommit               28227                       # Number of branches squashed from commit (Count)
system.cpu.bac.preDecUpdate::NoBranch               0                       # Number of branches extracted from the predecoder (Count)
system.cpu.bac.preDecUpdate::Return                 0                       # Number of branches extracted from the predecoder (Count)
system.cpu.bac.preDecUpdate::CallDirect             0                       # Number of branches extracted from the predecoder (Count)
system.cpu.bac.preDecUpdate::CallIndirect            0                       # Number of branches extracted from the predecoder (Count)
system.cpu.bac.preDecUpdate::DirectCond             0                       # Number of branches extracted from the predecoder (Count)
system.cpu.bac.preDecUpdate::DirectUncond            0                       # Number of branches extracted from the predecoder (Count)
system.cpu.bac.preDecUpdate::IndirectCond            0                       # Number of branches extracted from the predecoder (Count)
system.cpu.bac.preDecUpdate::IndirectUncond            0                       # Number of branches extracted from the predecoder (Count)
system.cpu.bac.preDecUpdate::total                  0                       # Number of branches extracted from the predecoder (Count)
system.cpu.bac.noHistByType::NoBranch               0                       # Number and type of branches that were undetected by the BPU. (Count)
system.cpu.bac.noHistByType::Return                 0                       # Number and type of branches that were undetected by the BPU. (Count)
system.cpu.bac.noHistByType::CallDirect             0                       # Number and type of branches that were undetected by the BPU. (Count)
system.cpu.bac.noHistByType::CallIndirect            0                       # Number and type of branches that were undetected by the BPU. (Count)
system.cpu.bac.noHistByType::DirectCond             0                       # Number and type of branches that were undetected by the BPU. (Count)
system.cpu.bac.noHistByType::DirectUncond            0                       # Number and type of branches that were undetected by the BPU. (Count)
system.cpu.bac.noHistByType::IndirectCond            0                       # Number and type of branches that were undetected by the BPU. (Count)
system.cpu.bac.noHistByType::IndirectUncond            0                       # Number and type of branches that were undetected by the BPU. (Count)
system.cpu.bac.noHistByType::total                  0                       # Number and type of branches that were undetected by the BPU. (Count)
system.cpu.bac.typeMissmatch                        0                       # Number branches where the branch type miss match (Count)
system.cpu.bac.multiBranchInst                      0                       # Number branches because its not the last branch. (Count)
system.cpu.bac.ftSizeDist::samples                  0                       # Number of bytes per fetch target (Count)
system.cpu.bac.ftSizeDist::mean                   nan                       # Number of bytes per fetch target (Count)
system.cpu.bac.ftSizeDist::stdev                  nan                       # Number of bytes per fetch target (Count)
system.cpu.bac.ftSizeDist::underflows               0                       # Number of bytes per fetch target (Count)
system.cpu.bac.ftSizeDist::0-3                      0                       # Number of bytes per fetch target (Count)
system.cpu.bac.ftSizeDist::4-7                      0                       # Number of bytes per fetch target (Count)
system.cpu.bac.ftSizeDist::8-11                     0                       # Number of bytes per fetch target (Count)
system.cpu.bac.ftSizeDist::12-15                    0                       # Number of bytes per fetch target (Count)
system.cpu.bac.ftSizeDist::16-19                    0                       # Number of bytes per fetch target (Count)
system.cpu.bac.ftSizeDist::20-23                    0                       # Number of bytes per fetch target (Count)
system.cpu.bac.ftSizeDist::24-27                    0                       # Number of bytes per fetch target (Count)
system.cpu.bac.ftSizeDist::28-31                    0                       # Number of bytes per fetch target (Count)
system.cpu.bac.ftSizeDist::32                       0                       # Number of bytes per fetch target (Count)
system.cpu.bac.ftSizeDist::overflows                0                       # Number of bytes per fetch target (Count)
system.cpu.bac.ftSizeDist::min_value                0                       # Number of bytes per fetch target (Count)
system.cpu.bac.ftSizeDist::max_value                0                       # Number of bytes per fetch target (Count)
system.cpu.bac.ftSizeDist::total                    0                       # Number of bytes per fetch target (Count)
system.cpu.bac.ftNumber::samples                    0                       # Number of fetch target inserted to the FTQ per cycle (Count)
system.cpu.bac.ftNumber::mean                     nan                       # Number of fetch target inserted to the FTQ per cycle (Count)
system.cpu.bac.ftNumber::stdev                    nan                       # Number of fetch target inserted to the FTQ per cycle (Count)
system.cpu.bac.ftNumber::underflows                 0                       # Number of fetch target inserted to the FTQ per cycle (Count)
system.cpu.bac.ftNumber::0                          0                       # Number of fetch target inserted to the FTQ per cycle (Count)
system.cpu.bac.ftNumber::1                          0                       # Number of fetch target inserted to the FTQ per cycle (Count)
system.cpu.bac.ftNumber::2                          0                       # Number of fetch target inserted to the FTQ per cycle (Count)
system.cpu.bac.ftNumber::3                          0                       # Number of fetch target inserted to the FTQ per cycle (Count)
system.cpu.bac.ftNumber::4                          0                       # Number of fetch target inserted to the FTQ per cycle (Count)
system.cpu.bac.ftNumber::overflows                  0                       # Number of fetch target inserted to the FTQ per cycle (Count)
system.cpu.bac.ftNumber::min_value                  0                       # Number of fetch target inserted to the FTQ per cycle (Count)
system.cpu.bac.ftNumber::max_value                  0                       # Number of fetch target inserted to the FTQ per cycle (Count)
system.cpu.bac.ftNumber::total                      0                       # Number of fetch target inserted to the FTQ per cycle (Count)
system.cpu.branchPred.lookups_0::NoBranch         1639      0.09%      0.09% # Number of BP lookups (Count)
system.cpu.branchPred.lookups_0::Return         86603      4.89%      4.98% # Number of BP lookups (Count)
system.cpu.branchPred.lookups_0::CallDirect        91840      5.19%     10.17% # Number of BP lookups (Count)
system.cpu.branchPred.lookups_0::CallIndirect          173      0.01%     10.18% # Number of BP lookups (Count)
system.cpu.branchPred.lookups_0::DirectCond      1431052     80.80%     90.98% # Number of BP lookups (Count)
system.cpu.branchPred.lookups_0::DirectUncond       115564      6.53%     97.50% # Number of BP lookups (Count)
system.cpu.branchPred.lookups_0::IndirectCond            0      0.00%     97.50% # Number of BP lookups (Count)
system.cpu.branchPred.lookups_0::IndirectUncond        44201      2.50%    100.00% # Number of BP lookups (Count)
system.cpu.branchPred.lookups_0::total        1771072                       # Number of BP lookups (Count)
system.cpu.branchPred.squashes_0::NoBranch         1588      0.95%      0.95% # Number of branches that got squashed (completely removed) as an earlier branch was mispredicted. (Count)
system.cpu.branchPred.squashes_0::Return         4170      2.51%      3.46% # Number of branches that got squashed (completely removed) as an earlier branch was mispredicted. (Count)
system.cpu.branchPred.squashes_0::CallDirect         9509      5.71%      9.18% # Number of branches that got squashed (completely removed) as an earlier branch was mispredicted. (Count)
system.cpu.branchPred.squashes_0::CallIndirect           66      0.04%      9.21% # Number of branches that got squashed (completely removed) as an earlier branch was mispredicted. (Count)
system.cpu.branchPred.squashes_0::DirectCond       135985     81.72%     90.94% # Number of branches that got squashed (completely removed) as an earlier branch was mispredicted. (Count)
system.cpu.branchPred.squashes_0::DirectUncond        12903      7.75%     98.69% # Number of branches that got squashed (completely removed) as an earlier branch was mispredicted. (Count)
system.cpu.branchPred.squashes_0::IndirectCond            0      0.00%     98.69% # Number of branches that got squashed (completely removed) as an earlier branch was mispredicted. (Count)
system.cpu.branchPred.squashes_0::IndirectUncond         2175      1.31%    100.00% # Number of branches that got squashed (completely removed) as an earlier branch was mispredicted. (Count)
system.cpu.branchPred.squashes_0::total        166396                       # Number of branches that got squashed (completely removed) as an earlier branch was mispredicted. (Count)
system.cpu.branchPred.corrected_0::NoBranch          128      0.40%      0.40% # Number of branches that got corrected but not yet commited. Branches get corrected by decode or after execute. Also a branch misprediction can be detected out-of-order. Therefore, a corrected branch might not end up beeing committed in case an even earlier branch was mispredicted (Count)
system.cpu.branchPred.corrected_0::Return            3      0.01%      0.41% # Number of branches that got corrected but not yet commited. Branches get corrected by decode or after execute. Also a branch misprediction can be detected out-of-order. Therefore, a corrected branch might not end up beeing committed in case an even earlier branch was mispredicted (Count)
system.cpu.branchPred.corrected_0::CallDirect          428      1.33%      1.74% # Number of branches that got corrected but not yet commited. Branches get corrected by decode or after execute. Also a branch misprediction can be detected out-of-order. Therefore, a corrected branch might not end up beeing committed in case an even earlier branch was mispredicted (Count)
system.cpu.branchPred.corrected_0::CallIndirect          108      0.34%      2.08% # Number of branches that got corrected but not yet commited. Branches get corrected by decode or after execute. Also a branch misprediction can be detected out-of-order. Therefore, a corrected branch might not end up beeing committed in case an even earlier branch was mispredicted (Count)
system.cpu.branchPred.corrected_0::DirectCond        27737     86.31%     88.39% # Number of branches that got corrected but not yet commited. Branches get corrected by decode or after execute. Also a branch misprediction can be detected out-of-order. Therefore, a corrected branch might not end up beeing committed in case an even earlier branch was mispredicted (Count)
system.cpu.branchPred.corrected_0::DirectUncond         3447     10.73%     99.12% # Number of branches that got corrected but not yet commited. Branches get corrected by decode or after execute. Also a branch misprediction can be detected out-of-order. Therefore, a corrected branch might not end up beeing committed in case an even earlier branch was mispredicted (Count)
system.cpu.branchPred.corrected_0::IndirectCond            0      0.00%     99.12% # Number of branches that got corrected but not yet commited. Branches get corrected by decode or after execute. Also a branch misprediction can be detected out-of-order. Therefore, a corrected branch might not end up beeing committed in case an even earlier branch was mispredicted (Count)
system.cpu.branchPred.corrected_0::IndirectUncond          284      0.88%    100.00% # Number of branches that got corrected but not yet commited. Branches get corrected by decode or after execute. Also a branch misprediction can be detected out-of-order. Therefore, a corrected branch might not end up beeing committed in case an even earlier branch was mispredicted (Count)
system.cpu.branchPred.corrected_0::total        32135                       # Number of branches that got corrected but not yet commited. Branches get corrected by decode or after execute. Also a branch misprediction can be detected out-of-order. Therefore, a corrected branch might not end up beeing committed in case an even earlier branch was mispredicted (Count)
system.cpu.branchPred.earlyResteers_0::NoBranch            0      0.00%      0.00% # Number of branches that got redirected after decode. (Count)
system.cpu.branchPred.earlyResteers_0::Return            0      0.00%      0.00% # Number of branches that got redirected after decode. (Count)
system.cpu.branchPred.earlyResteers_0::CallDirect          428     10.95%     10.95% # Number of branches that got redirected after decode. (Count)
system.cpu.branchPred.earlyResteers_0::CallIndirect            0      0.00%     10.95% # Number of branches that got redirected after decode. (Count)
system.cpu.branchPred.earlyResteers_0::DirectCond           33      0.84%     11.80% # Number of branches that got redirected after decode. (Count)
system.cpu.branchPred.earlyResteers_0::DirectUncond         3447     88.20%    100.00% # Number of branches that got redirected after decode. (Count)
system.cpu.branchPred.earlyResteers_0::IndirectCond            0      0.00%    100.00% # Number of branches that got redirected after decode. (Count)
system.cpu.branchPred.earlyResteers_0::IndirectUncond            0      0.00%    100.00% # Number of branches that got redirected after decode. (Count)
system.cpu.branchPred.earlyResteers_0::total         3908                       # Number of branches that got redirected after decode. (Count)
system.cpu.branchPred.committed_0::NoBranch           51      0.00%      0.00% # Number of branches finally committed  (Count)
system.cpu.branchPred.committed_0::Return        82433      5.14%      5.14% # Number of branches finally committed  (Count)
system.cpu.branchPred.committed_0::CallDirect        82331      5.13%     10.27% # Number of branches finally committed  (Count)
system.cpu.branchPred.committed_0::CallIndirect          107      0.01%     10.28% # Number of branches finally committed  (Count)
system.cpu.branchPred.committed_0::DirectCond      1295066     80.71%     90.98% # Number of branches finally committed  (Count)
system.cpu.branchPred.committed_0::DirectUncond       102661      6.40%     97.38% # Number of branches finally committed  (Count)
system.cpu.branchPred.committed_0::IndirectCond            0      0.00%     97.38% # Number of branches finally committed  (Count)
system.cpu.branchPred.committed_0::IndirectUncond        42026      2.62%    100.00% # Number of branches finally committed  (Count)
system.cpu.branchPred.committed_0::total      1604675                       # Number of branches finally committed  (Count)
system.cpu.branchPred.mispredicted_0::NoBranch           51      0.17%      0.17% # Number of committed branches that were mispredicted. (Count)
system.cpu.branchPred.mispredicted_0::Return            0      0.00%      0.17% # Number of committed branches that were mispredicted. (Count)
system.cpu.branchPred.mispredicted_0::CallDirect          251      0.83%      1.00% # Number of committed branches that were mispredicted. (Count)
system.cpu.branchPred.mispredicted_0::CallIndirect          103      0.34%      1.34% # Number of committed branches that were mispredicted. (Count)
system.cpu.branchPred.mispredicted_0::DirectCond        26202     86.95%     88.29% # Number of committed branches that were mispredicted. (Count)
system.cpu.branchPred.mispredicted_0::DirectUncond         3273     10.86%     99.15% # Number of committed branches that were mispredicted. (Count)
system.cpu.branchPred.mispredicted_0::IndirectCond            0      0.00%     99.15% # Number of committed branches that were mispredicted. (Count)
system.cpu.branchPred.mispredicted_0::IndirectUncond          256      0.85%    100.00% # Number of committed branches that were mispredicted. (Count)
system.cpu.branchPred.mispredicted_0::total        30136                       # Number of committed branches that were mispredicted. (Count)
system.cpu.branchPred.mispredictDueToPredictor_0::NoBranch           51      0.23%      0.23% # Number of committed branches that were mispredicted by the predictor. (Count)
system.cpu.branchPred.mispredictDueToPredictor_0::Return            0      0.00%      0.23% # Number of committed branches that were mispredicted by the predictor. (Count)
system.cpu.branchPred.mispredictDueToPredictor_0::CallDirect            0      0.00%      0.23% # Number of committed branches that were mispredicted by the predictor. (Count)
system.cpu.branchPred.mispredictDueToPredictor_0::CallIndirect            0      0.00%      0.23% # Number of committed branches that were mispredicted by the predictor. (Count)
system.cpu.branchPred.mispredictDueToPredictor_0::DirectCond        22367     99.77%    100.00% # Number of committed branches that were mispredicted by the predictor. (Count)
system.cpu.branchPred.mispredictDueToPredictor_0::DirectUncond            0      0.00%    100.00% # Number of committed branches that were mispredicted by the predictor. (Count)
system.cpu.branchPred.mispredictDueToPredictor_0::IndirectCond            0      0.00%    100.00% # Number of committed branches that were mispredicted by the predictor. (Count)
system.cpu.branchPred.mispredictDueToPredictor_0::IndirectUncond            0      0.00%    100.00% # Number of committed branches that were mispredicted by the predictor. (Count)
system.cpu.branchPred.mispredictDueToPredictor_0::total        22418                       # Number of committed branches that were mispredicted by the predictor. (Count)
system.cpu.branchPred.mispredictDueToBTBMiss_0::NoBranch            0      0.00%      0.00% # Number of committed branches that were mispredicted because of a BTB miss. (Count)
system.cpu.branchPred.mispredictDueToBTBMiss_0::Return            0      0.00%      0.00% # Number of committed branches that were mispredicted because of a BTB miss. (Count)
system.cpu.branchPred.mispredictDueToBTBMiss_0::CallDirect          251      3.25%      3.25% # Number of committed branches that were mispredicted because of a BTB miss. (Count)
system.cpu.branchPred.mispredictDueToBTBMiss_0::CallIndirect          103      1.33%      4.59% # Number of committed branches that were mispredicted because of a BTB miss. (Count)
system.cpu.branchPred.mispredictDueToBTBMiss_0::DirectCond         3835     49.69%     54.28% # Number of committed branches that were mispredicted because of a BTB miss. (Count)
system.cpu.branchPred.mispredictDueToBTBMiss_0::DirectUncond         3273     42.41%     96.68% # Number of committed branches that were mispredicted because of a BTB miss. (Count)
system.cpu.branchPred.mispredictDueToBTBMiss_0::IndirectCond            0      0.00%     96.68% # Number of committed branches that were mispredicted because of a BTB miss. (Count)
system.cpu.branchPred.mispredictDueToBTBMiss_0::IndirectUncond          256      3.32%    100.00% # Number of committed branches that were mispredicted because of a BTB miss. (Count)
system.cpu.branchPred.mispredictDueToBTBMiss_0::total         7718                       # Number of committed branches that were mispredicted because of a BTB miss. (Count)
system.cpu.branchPred.targetProvider_0::NoTarget       805790     45.50%     45.50% # The component providing the target for taken branches (Count)
system.cpu.branchPred.targetProvider_0::BTB       836369     47.22%     92.72% # The component providing the target for taken branches (Count)
system.cpu.branchPred.targetProvider_0::RAS        86603      4.89%     97.61% # The component providing the target for taken branches (Count)
system.cpu.branchPred.targetProvider_0::Indirect        42310      2.39%    100.00% # The component providing the target for taken branches (Count)
system.cpu.branchPred.targetProvider_0::total      1771072                       # The component providing the target for taken branches (Count)
system.cpu.branchPred.targetWrong_0::NoBranch        17253     64.07%     64.07% # Number of branches where the target was incorrect or not available at prediction time. (Count)
system.cpu.branchPred.targetWrong_0::Return         9651     35.84%     99.91% # Number of branches where the target was incorrect or not available at prediction time. (Count)
system.cpu.branchPred.targetWrong_0::CallDirect            3      0.01%     99.92% # Number of branches where the target was incorrect or not available at prediction time. (Count)
system.cpu.branchPred.targetWrong_0::CallIndirect           22      0.08%    100.00% # Number of branches where the target was incorrect or not available at prediction time. (Count)
system.cpu.branchPred.targetWrong_0::DirectCond            0      0.00%    100.00% # Number of branches where the target was incorrect or not available at prediction time. (Count)
system.cpu.branchPred.targetWrong_0::DirectUncond            0      0.00%    100.00% # Number of branches where the target was incorrect or not available at prediction time. (Count)
system.cpu.branchPred.targetWrong_0::IndirectCond            0      0.00%    100.00% # Number of branches where the target was incorrect or not available at prediction time. (Count)
system.cpu.branchPred.targetWrong_0::IndirectUncond            0      0.00%    100.00% # Number of branches where the target was incorrect or not available at prediction time. (Count)
system.cpu.branchPred.targetWrong_0::total        26929                       # Number of branches where the target was incorrect or not available at prediction time. (Count)
system.cpu.branchPred.condPredicted           1431052                       # Number of conditional branches predicted (Count)
system.cpu.branchPred.condPredictedTaken       642320                       # Number of conditional branches predicted as taken (Count)
system.cpu.branchPred.condIncorrect             30136                       # Number of conditional branches incorrect (Count)
system.cpu.branchPred.predTakenBTBMiss           7260                       # Number of branches predicted taken but missed in BTB (Count)
system.cpu.branchPred.BTBLookups              1771072                       # Number of BTB lookups (Count)
system.cpu.branchPred.BTBUpdates                20242                       # Number of BTB updates (Count)
system.cpu.branchPred.BTBHits                 1024494                       # Number of BTB hits (Count)
system.cpu.branchPred.BTBHitRatio            0.578460                       # BTB Hit Ratio (Ratio)
system.cpu.branchPred.BTBMispredicted            8072                       # Number BTB mispredictions. No target found or target wrong (Count)
system.cpu.branchPred.indirectLookups           44374                       # Number of indirect predictor lookups. (Count)
system.cpu.branchPred.indirectHits              42310                       # Number of indirect target hits. (Count)
system.cpu.branchPred.indirectMisses             2064                       # Number of indirect misses. (Count)
system.cpu.branchPred.indirectMispredicted            0                       # Number of mispredicted indirect branches. (Count)
system.cpu.branchPred.btb.lookups::NoBranch         1639      0.09%      0.09% # Number of BTB lookups (Count)
system.cpu.branchPred.btb.lookups::Return        86603      4.89%      4.98% # Number of BTB lookups (Count)
system.cpu.branchPred.btb.lookups::CallDirect        91840      5.19%     10.17% # Number of BTB lookups (Count)
system.cpu.branchPred.btb.lookups::CallIndirect          173      0.01%     10.18% # Number of BTB lookups (Count)
system.cpu.branchPred.btb.lookups::DirectCond      1431052     80.80%     90.98% # Number of BTB lookups (Count)
system.cpu.branchPred.btb.lookups::DirectUncond       115564      6.53%     97.50% # Number of BTB lookups (Count)
system.cpu.branchPred.btb.lookups::IndirectCond            0      0.00%     97.50% # Number of BTB lookups (Count)
system.cpu.branchPred.btb.lookups::IndirectUncond        44201      2.50%    100.00% # Number of BTB lookups (Count)
system.cpu.branchPred.btb.lookups::total      1771072                       # Number of BTB lookups (Count)
system.cpu.branchPred.btb.misses::NoBranch          238      0.03%      0.03% # Number of BTB misses (Count)
system.cpu.branchPred.btb.misses::Return        86603     11.60%     11.63% # Number of BTB misses (Count)
system.cpu.branchPred.btb.misses::CallDirect          604      0.08%     11.71% # Number of BTB misses (Count)
system.cpu.branchPred.btb.misses::CallIndirect          173      0.02%     11.74% # Number of BTB misses (Count)
system.cpu.branchPred.btb.misses::DirectCond       606322     81.21%     92.95% # Number of BTB misses (Count)
system.cpu.branchPred.btb.misses::DirectUncond         8437      1.13%     94.08% # Number of BTB misses (Count)
system.cpu.branchPred.btb.misses::IndirectCond            0      0.00%     94.08% # Number of BTB misses (Count)
system.cpu.branchPred.btb.misses::IndirectUncond        44201      5.92%    100.00% # Number of BTB misses (Count)
system.cpu.branchPred.btb.misses::total        746578                       # Number of BTB misses (Count)
system.cpu.branchPred.btb.updates::NoBranch          128      0.63%      0.63% # Number of BTB updates (Count)
system.cpu.branchPred.btb.updates::Return            0      0.00%      0.63% # Number of BTB updates (Count)
system.cpu.branchPred.btb.updates::CallDirect          428      2.11%      2.75% # Number of BTB updates (Count)
system.cpu.branchPred.btb.updates::CallIndirect            0      0.00%      2.75% # Number of BTB updates (Count)
system.cpu.branchPred.btb.updates::DirectCond        16239     80.22%     82.97% # Number of BTB updates (Count)
system.cpu.branchPred.btb.updates::DirectUncond         3447     17.03%    100.00% # Number of BTB updates (Count)
system.cpu.branchPred.btb.updates::IndirectCond            0      0.00%    100.00% # Number of BTB updates (Count)
system.cpu.branchPred.btb.updates::IndirectUncond            0      0.00%    100.00% # Number of BTB updates (Count)
system.cpu.branchPred.btb.updates::total        20242                       # Number of BTB updates (Count)
system.cpu.branchPred.btb.mispredict::NoBranch          128      0.63%      0.63% # Number of BTB mispredictions. No target found or target wrong. (Count)
system.cpu.branchPred.btb.mispredict::Return            0      0.00%      0.63% # Number of BTB mispredictions. No target found or target wrong. (Count)
system.cpu.branchPred.btb.mispredict::CallDirect          428      2.11%      2.75% # Number of BTB mispredictions. No target found or target wrong. (Count)
system.cpu.branchPred.btb.mispredict::CallIndirect            0      0.00%      2.75% # Number of BTB mispredictions. No target found or target wrong. (Count)
system.cpu.branchPred.btb.mispredict::DirectCond        16239     80.22%     82.97% # Number of BTB mispredictions. No target found or target wrong. (Count)
system.cpu.branchPred.btb.mispredict::DirectUncond         3447     17.03%    100.00% # Number of BTB mispredictions. No target found or target wrong. (Count)
system.cpu.branchPred.btb.mispredict::IndirectCond            0      0.00%    100.00% # Number of BTB mispredictions. No target found or target wrong. (Count)
system.cpu.branchPred.btb.mispredict::IndirectUncond            0      0.00%    100.00% # Number of BTB mispredictions. No target found or target wrong. (Count)
system.cpu.branchPred.btb.mispredict::total        20242                       # Number of BTB mispredictions. No target found or target wrong. (Count)
system.cpu.branchPred.btb.power_state.pwrStateResidencyTicks::UNDEFINED   1069700250                       # Cumulative time (in ticks) in various power states (Tick)
system.cpu.branchPred.indirectBranchPred.lookups        44374                       # Number of lookups (Count)
system.cpu.branchPred.indirectBranchPred.hits        42310                       # Number of hits of a tag (Count)
system.cpu.branchPred.indirectBranchPred.misses         2064                       # Number of misses (Count)
system.cpu.branchPred.indirectBranchPred.targetRecords          392                       # Number of targets that where recorded/installed in the cache (Count)
system.cpu.branchPred.indirectBranchPred.indirectRecords        44766                       # Number of indirect branches/calls recorded in the indirect hist (Count)
system.cpu.branchPred.indirectBranchPred.speculativeOverflows            5                       # Number of times more than the allowed capacity for speculative branches/calls where in flight and destroy the path history (Count)
system.cpu.branchPred.ras.pushes                96183                       # Number of times a PC was pushed onto the RAS (Count)
system.cpu.branchPred.ras.pops                  96178                       # Number of times a PC was poped from the RAS (Count)
system.cpu.branchPred.ras.squashes              13745                       # Number of times the stack operation was squashed due to wrong speculation. (Count)
system.cpu.branchPred.ras.used                  82433                       # Number of times the RAS is the provider (Count)
system.cpu.branchPred.ras.correct               82433                       # Number of times the RAS is the provider and the prediction is correct (Count)
system.cpu.branchPred.ras.incorrect                 0                       # Number of times the RAS is the provider and the prediction is wrong (Count)
system.cpu.commit.commitSquashedInsts          839275                       # The number of squashed insts skipped by commit (Count)
system.cpu.commit.commitNonSpecStalls              36                       # The number of times commit has been forced to stall to communicate backwards (Count)
system.cpu.commit.branchMispredicts             28916                       # The number of times a branch was mispredicted (Count)
system.cpu.commit.numCommittedDist::samples      3854927                       # Number of insts commited each cycle (Count)
system.cpu.commit.numCommittedDist::mean     3.474548                       # Number of insts commited each cycle (Count)
system.cpu.commit.numCommittedDist::stdev     3.092926                       # Number of insts commited each cycle (Count)
system.cpu.commit.numCommittedDist::underflows            0      0.00%      0.00% # Number of insts commited each cycle (Count)
system.cpu.commit.numCommittedDist::0          821057     21.30%     21.30% # Number of insts commited each cycle (Count)
system.cpu.commit.numCommittedDist::1          578251     15.00%     36.30% # Number of insts commited each cycle (Count)
system.cpu.commit.numCommittedDist::2          535567     13.89%     50.19% # Number of insts commited each cycle (Count)
system.cpu.commit.numCommittedDist::3          457912     11.88%     62.07% # Number of insts commited each cycle (Count)
system.cpu.commit.numCommittedDist::4          188636      4.89%     66.96% # Number of insts commited each cycle (Count)
system.cpu.commit.numCommittedDist::5           78437      2.03%     69.00% # Number of insts commited each cycle (Count)
system.cpu.commit.numCommittedDist::6           77116      2.00%     71.00% # Number of insts commited each cycle (Count)
system.cpu.commit.numCommittedDist::7          182024      4.72%     75.72% # Number of insts commited each cycle (Count)
system.cpu.commit.numCommittedDist::8          935927     24.28%    100.00% # Number of insts commited each cycle (Count)
system.cpu.commit.numCommittedDist::overflows            0      0.00%    100.00% # Number of insts commited each cycle (Count)
system.cpu.commit.numCommittedDist::min_value            0                       # Number of insts commited each cycle (Count)
system.cpu.commit.numCommittedDist::max_value            8                       # Number of insts commited each cycle (Count)
system.cpu.commit.numCommittedDist::total      3854927                       # Number of insts commited each cycle (Count)
system.cpu.commit.amos                              0                       # Number of atomic instructions committed (Count)
system.cpu.commit.membars                          24                       # Number of memory barriers committed (Count)
system.cpu.commit.committedInstType_0::No_OpClass       173648      1.30%      1.30% # Class of committed instruction (Count)
system.cpu.commit.committedInstType_0::IntAlu     10742225     80.20%     81.50% # Class of committed instruction (Count)
system.cpu.commit.committedInstType_0::IntMult        17811      0.13%     81.63% # Class of committed instruction (Count)
system.cpu.commit.committedInstType_0::IntDiv       133195      0.99%     82.62% # Class of committed instruction (Count)
system.cpu.commit.committedInstType_0::FloatAdd        16119      0.12%     82.75% # Class of committed instruction (Count)
system.cpu.commit.committedInstType_0::FloatCmp            0      0.00%     82.75% # Class of committed instruction (Count)
system.cpu.commit.committedInstType_0::FloatCvt            0      0.00%     82.75% # Class of committed instruction (Count)
system.cpu.commit.committedInstType_0::FloatMult            0      0.00%     82.75% # Class of committed instruction (Count)
system.cpu.commit.committedInstType_0::FloatMultAcc            0      0.00%     82.75% # Class of committed instruction (Count)
system.cpu.commit.committedInstType_0::FloatDiv            0      0.00%     82.75% # Class of committed instruction (Count)
system.cpu.commit.committedInstType_0::FloatMisc            0      0.00%     82.75% # Class of committed instruction (Count)
system.cpu.commit.committedInstType_0::FloatSqrt            0      0.00%     82.75% # Class of committed instruction (Count)
system.cpu.commit.committedInstType_0::SimdAdd          506      0.00%     82.75% # Class of committed instruction (Count)
system.cpu.commit.committedInstType_0::SimdAddAcc            0      0.00%     82.75% # Class of committed instruction (Count)
system.cpu.commit.committedInstType_0::SimdAlu       106438      0.79%     83.54% # Class of committed instruction (Count)
system.cpu.commit.committedInstType_0::SimdCmp          304      0.00%     83.55% # Class of committed instruction (Count)
system.cpu.commit.committedInstType_0::SimdCvt        88966      0.66%     84.21% # Class of committed instruction (Count)
system.cpu.commit.committedInstType_0::SimdMisc       105969      0.79%     85.00% # Class of committed instruction (Count)
system.cpu.commit.committedInstType_0::SimdMult            0      0.00%     85.00% # Class of committed instruction (Count)
system.cpu.commit.committedInstType_0::SimdMultAcc            0      0.00%     85.00% # Class of committed instruction (Count)
system.cpu.commit.committedInstType_0::SimdMatMultAcc            0      0.00%     85.00% # Class of committed instruction (Count)
system.cpu.commit.committedInstType_0::SimdShift          285      0.00%     85.00% # Class of committed instruction (Count)
system.cpu.commit.committedInstType_0::SimdShiftAcc            0      0.00%     85.00% # Class of committed instruction (Count)
system.cpu.commit.committedInstType_0::SimdDiv            0      0.00%     85.00% # Class of committed instruction (Count)
system.cpu.commit.committedInstType_0::SimdSqrt            0      0.00%     85.00% # Class of committed instruction (Count)
system.cpu.commit.committedInstType_0::SimdFloatAdd         4739      0.04%     85.04% # Class of committed instruction (Count)
system.cpu.commit.committedInstType_0::SimdFloatAlu            0      0.00%     85.04% # Class of committed instruction (Count)
system.cpu.commit.committedInstType_0::SimdFloatCmp            0      0.00%     85.04% # Class of committed instruction (Count)
system.cpu.commit.committedInstType_0::SimdFloatCvt         1976      0.01%     85.05% # Class of committed instruction (Count)
system.cpu.commit.committedInstType_0::SimdFloatDiv            0      0.00%     85.05% # Class of committed instruction (Count)
system.cpu.commit.committedInstType_0::SimdFloatMisc            0      0.00%     85.05% # Class of committed instruction (Count)
system.cpu.commit.committedInstType_0::SimdFloatMult         1666      0.01%     85.07% # Class of committed instruction (Count)
system.cpu.commit.committedInstType_0::SimdFloatMultAcc            0      0.00%     85.07% # Class of committed instruction (Count)
system.cpu.commit.committedInstType_0::SimdFloatMatMultAcc            0      0.00%     85.07% # Class of committed instruction (Count)
system.cpu.commit.committedInstType_0::SimdFloatSqrt            0      0.00%     85.07% # Class of committed instruction (Count)
system.cpu.commit.committedInstType_0::SimdReduceAdd            0      0.00%     85.07% # Class of committed instruction (Count)
system.cpu.commit.committedInstType_0::SimdReduceAlu            0      0.00%     85.07% # Class of committed instruction (Count)
system.cpu.commit.committedInstType_0::SimdReduceCmp            0      0.00%     85.07% # Class of committed instruction (Count)
system.cpu.commit.committedInstType_0::SimdFloatReduceAdd            0      0.00%     85.07% # Class of committed instruction (Count)
system.cpu.commit.committedInstType_0::SimdFloatReduceCmp            0      0.00%     85.07% # Class of committed instruction (Count)
system.cpu.commit.committedInstType_0::SimdAes            0      0.00%     85.07% # Class of committed instruction (Count)
system.cpu.commit.committedInstType_0::SimdAesMix            0      0.00%     85.07% # Class of committed instruction (Count)
system.cpu.commit.committedInstType_0::SimdSha1Hash            0      0.00%     85.07% # Class of committed instruction (Count)
system.cpu.commit.committedInstType_0::SimdSha1Hash2            0      0.00%     85.07% # Class of committed instruction (Count)
system.cpu.commit.committedInstType_0::SimdSha256Hash            0      0.00%     85.07% # Class of committed instruction (Count)
system.cpu.commit.committedInstType_0::SimdSha256Hash2            0      0.00%     85.07% # Class of committed instruction (Count)
system.cpu.commit.committedInstType_0::SimdShaSigma2            0      0.00%     85.07% # Class of committed instruction (Count)
system.cpu.commit.committedInstType_0::SimdShaSigma3            0      0.00%     85.07% # Class of committed instruction (Count)
system.cpu.commit.committedInstType_0::SimdPredAlu            0      0.00%     85.07% # Class of committed instruction (Count)
system.cpu.commit.committedInstType_0::Matrix            0      0.00%     85.07% # Class of committed instruction (Count)
system.cpu.commit.committedInstType_0::MatrixMov            0      0.00%     85.07% # Class of committed instruction (Count)
system.cpu.commit.committedInstType_0::MatrixOP            0      0.00%     85.07% # Class of committed instruction (Count)
system.cpu.commit.committedInstType_0::MemRead      1294928      9.67%     94.73% # Class of committed instruction (Count)
system.cpu.commit.committedInstType_0::MemWrite       600127      4.48%     99.21% # Class of committed instruction (Count)
system.cpu.commit.committedInstType_0::FloatMemRead        80614      0.60%     99.82% # Class of committed instruction (Count)
system.cpu.commit.committedInstType_0::FloatMemWrite        24614      0.18%    100.00% # Class of committed instruction (Count)
system.cpu.commit.committedInstType_0::IprAccess            0      0.00%    100.00% # Class of committed instruction (Count)
system.cpu.commit.committedInstType_0::InstPrefetch            0      0.00%    100.00% # Class of committed instruction (Count)
system.cpu.commit.committedInstType_0::SimdUnitStrideLoad            0      0.00%    100.00% # Class of committed instruction (Count)
system.cpu.commit.committedInstType_0::SimdUnitStrideStore            0      0.00%    100.00% # Class of committed instruction (Count)
system.cpu.commit.committedInstType_0::SimdUnitStrideMaskLoad            0      0.00%    100.00% # Class of committed instruction (Count)
system.cpu.commit.committedInstType_0::SimdUnitStrideMaskStore            0      0.00%    100.00% # Class of committed instruction (Count)
system.cpu.commit.committedInstType_0::SimdStridedLoad            0      0.00%    100.00% # Class of committed instruction (Count)
system.cpu.commit.committedInstType_0::SimdStridedStore            0      0.00%    100.00% # Class of committed instruction (Count)
system.cpu.commit.committedInstType_0::SimdIndexedLoad            0      0.00%    100.00% # Class of committed instruction (Count)
system.cpu.commit.committedInstType_0::SimdIndexedStore            0      0.00%    100.00% # Class of committed instruction (Count)
system.cpu.commit.committedInstType_0::SimdWholeRegisterLoad            0      0.00%    100.00% # Class of committed instruction (Count)
system.cpu.commit.committedInstType_0::SimdWholeRegisterStore            0      0.00%    100.00% # Class of committed instruction (Count)
system.cpu.commit.committedInstType_0::SimdUnitStrideFaultOnlyFirstLoad            0      0.00%    100.00% # Class of committed instruction (Count)
system.cpu.commit.committedInstType_0::SimdUnitStrideSegmentedLoad            0      0.00%    100.00% # Class of committed instruction (Count)
system.cpu.commit.committedInstType_0::SimdUnitStrideSegmentedStore            0      0.00%    100.00% # Class of committed instruction (Count)
system.cpu.commit.committedInstType_0::SimdUnitStrideSegmentedFaultOnlyFirstLoad            0      0.00%    100.00% # Class of committed instruction (Count)
system.cpu.commit.committedInstType_0::SimdStrideSegmentedLoad            0      0.00%    100.00% # Class of committed instruction (Count)
system.cpu.commit.committedInstType_0::SimdStrideSegmentedStore            0      0.00%    100.00% # Class of committed instruction (Count)
system.cpu.commit.committedInstType_0::SimdExt            0      0.00%    100.00% # Class of committed instruction (Count)
system.cpu.commit.committedInstType_0::SimdFloatExt            0      0.00%    100.00% # Class of committed instruction (Count)
system.cpu.commit.committedInstType_0::SimdConfig            0      0.00%    100.00% # Class of committed instruction (Count)
system.cpu.commit.committedInstType_0::SimdBf16Cvt            0      0.00%    100.00% # Class of committed instruction (Count)
system.cpu.commit.committedInstType_0::SimdBf16DotProd            0      0.00%    100.00% # Class of committed instruction (Count)
system.cpu.commit.committedInstType_0::SimdBf16MatMultAcc            0      0.00%    100.00% # Class of committed instruction (Count)
system.cpu.commit.committedInstType_0::SimdBf16MultAcc            0      0.00%    100.00% # Class of committed instruction (Count)
system.cpu.commit.committedInstType_0::Bf16Cvt            0      0.00%    100.00% # Class of committed instruction (Count)
system.cpu.commit.committedInstType_0::total     13394130                       # Class of committed instruction (Count)
system.cpu.commit.commitEligibleSamples        935927                       # number cycles where commit BW limit reached (Cycle)
system.cpu.commitStats0.numInsts              6810923                       # Number of instructions committed (thread level) (Count)
system.cpu.commitStats0.numOps               13394130                       # Number of ops (including micro ops) committed (thread level) (Count)
system.cpu.commitStats0.numInstsNotNOP        6810923                       # Number of instructions committed excluding NOPs or prefetches (Count)
system.cpu.commitStats0.numOpsNotNOP         13394130                       # Number of Ops (including micro ops) Simulated (Count)
system.cpu.commitStats0.numUserInsts          6810923                       # Numbrer of instructions committed in user mode (Count)
system.cpu.commitStats0.numUserOps           13394130                       # Number of ops committed in user mode (Count)
system.cpu.commitStats0.ratioUserInsts              1                       # Ratio of instructions committed in user mode (Ratio)
system.cpu.commitStats0.ratioUserOps                1                       # Ratio of ops committed in user mode (Ratio)
system.cpu.commitStats0.cpi                  0.628226                       # CPI: cycles per instruction (thread level) ((Cycle/Count))
system.cpu.commitStats0.ipc                  1.591783                       # IPC: instructions per cycle (thread level) ((Count/Cycle))
system.cpu.commitStats0.numMemRefs            2000283                       # Number of memory references committed (Count)
system.cpu.commitStats0.numFpInsts             462934                       # Number of float instructions (Count)
system.cpu.commitStats0.numIntInsts          12884867                       # Number of integer instructions (Count)
system.cpu.commitStats0.numLoadInsts          1375542                       # Number of load instructions (Count)
system.cpu.commitStats0.numStoreInsts          624741                       # Number of store instructions (Count)
system.cpu.commitStats0.numVecInsts                 0                       # Number of vector instructions (Count)
system.cpu.commitStats0.committedInstType::No_OpClass       173648      1.30%      1.30% # Class of committed instruction. (Count)
[...]
system.mem_ctrl.requestorReadTotalLat::cpu.data    134005500                       # Per-requestor read total memory access latency (Tick)
system.mem_ctrl.requestorReadTotalLat::l2cache.prefetcher    149653500                       # Per-requestor read total memory access latency (Tick)
system.mem_ctrl.requestorWriteTotalLat::writebacks  24201532750                       # Per-requestor write total memory access latency (Tick)
system.mem_ctrl.requestorReadAvgLat::cpu.inst     42372.29                       # Per-requestor read average memory access latency ((Tick/Count))
system.mem_ctrl.requestorReadAvgLat::cpu.data     48729.27                       # Per-requestor read average memory access latency ((Tick/Count))
system.mem_ctrl.requestorReadAvgLat::l2cache.prefetcher     53106.28                       # Per-requestor read average memory access latency ((Tick/Count))
system.mem_ctrl.requestorWriteAvgLat::writebacks  77569015.22                       # Per-requestor write average memory access latency ((Tick/Count))
system.mem_ctrl.dram.bytesRead::cpu.inst       112128                       # Number of bytes read from this memory (Byte)
system.mem_ctrl.dram.bytesRead::cpu.data        88000                       # Number of bytes read from this memory (Byte)
system.mem_ctrl.dram.bytesRead::l2cache.prefetcher        90176                       # Number of bytes read from this memory (Byte)
system.mem_ctrl.dram.bytesRead::total          290304                       # Number of bytes read from this memory (Byte)
system.mem_ctrl.dram.bytesInstRead::cpu.inst       112128                       # Number of instructions bytes read from this memory (Byte)
system.mem_ctrl.dram.bytesInstRead::total       112128                       # Number of instructions bytes read from this memory (Byte)
system.mem_ctrl.dram.bytesWritten::writebacks         9984                       # Number of bytes written to this memory (Byte)
system.mem_ctrl.dram.bytesWritten::total         9984                       # Number of bytes written to this memory (Byte)
system.mem_ctrl.dram.numReads::cpu.inst          1752                       # Number of read requests responded to by this memory (Count)
system.mem_ctrl.dram.numReads::cpu.data          1375                       # Number of read requests responded to by this memory (Count)
system.mem_ctrl.dram.numReads::l2cache.prefetcher         1409                       # Number of read requests responded to by this memory (Count)
system.mem_ctrl.dram.numReads::total             4536                       # Number of read requests responded to by this memory (Count)
system.mem_ctrl.dram.numWrites::writebacks          156                       # Number of write requests responded to by this memory (Count)
system.mem_ctrl.dram.numWrites::total             156                       # Number of write requests responded to by this memory (Count)
system.mem_ctrl.dram.bwRead::cpu.inst       104821888                       # Total read bandwidth from this memory ((Byte/Second))
system.mem_ctrl.dram.bwRead::cpu.data        82266037                       # Total read bandwidth from this memory ((Byte/Second))
system.mem_ctrl.dram.bwRead::l2cache.prefetcher     84300251                       # Total read bandwidth from this memory ((Byte/Second))
system.mem_ctrl.dram.bwRead::total          271388176                       # Total read bandwidth from this memory ((Byte/Second))
system.mem_ctrl.dram.bwInstRead::cpu.inst    104821888                       # Instruction read bandwidth from this memory ((Byte/Second))
system.mem_ctrl.dram.bwInstRead::total      104821888                       # Instruction read bandwidth from this memory ((Byte/Second))
system.mem_ctrl.dram.bwWrite::writebacks      9333456                       # Write bandwidth from this memory ((Byte/Second))
system.mem_ctrl.dram.bwWrite::total           9333456                       # Write bandwidth from this memory ((Byte/Second))
system.mem_ctrl.dram.bwTotal::writebacks      9333456                       # Total bandwidth to/from this memory ((Byte/Second))
system.mem_ctrl.dram.bwTotal::cpu.inst      104821888                       # Total bandwidth to/from this memory ((Byte/Second))
system.mem_ctrl.dram.bwTotal::cpu.data       82266037                       # Total bandwidth to/from this memory ((Byte/Second))
system.mem_ctrl.dram.bwTotal::l2cache.prefetcher     84300251                       # Total bandwidth to/from this memory ((Byte/Second))
system.mem_ctrl.dram.bwTotal::total         280721632                       # Total bandwidth to/from this memory ((Byte/Second))
system.mem_ctrl.dram.readBursts                  9072                       # Number of DRAM read bursts (Count)
system.mem_ctrl.dram.writeBursts                  281                       # Number of DRAM write bursts (Count)
system.mem_ctrl.dram.perBankRdBursts::0           742                       # Per bank write bursts (Count)
system.mem_ctrl.dram.perBankRdBursts::1           668                       # Per bank write bursts (Count)
system.mem_ctrl.dram.perBankRdBursts::2           618                       # Per bank write bursts (Count)
system.mem_ctrl.dram.perBankRdBursts::3           516                       # Per bank write bursts (Count)
system.mem_ctrl.dram.perBankRdBursts::4           540                       # Per bank write bursts (Count)
system.mem_ctrl.dram.perBankRdBursts::5           610                       # Per bank write bursts (Count)
system.mem_ctrl.dram.perBankRdBursts::6           510                       # Per bank write bursts (Count)
system.mem_ctrl.dram.perBankRdBursts::7           550                       # Per bank write bursts (Count)
system.mem_ctrl.dram.perBankRdBursts::8           518                       # Per bank write bursts (Count)
system.mem_ctrl.dram.perBankRdBursts::9           522                       # Per bank write bursts (Count)
system.mem_ctrl.dram.perBankRdBursts::10          596                       # Per bank write bursts (Count)
system.mem_ctrl.dram.perBankRdBursts::11          546                       # Per bank write bursts (Count)
system.mem_ctrl.dram.perBankRdBursts::12          568                       # Per bank write bursts (Count)
system.mem_ctrl.dram.perBankRdBursts::13          548                       # Per bank write bursts (Count)
system.mem_ctrl.dram.perBankRdBursts::14          500                       # Per bank write bursts (Count)
system.mem_ctrl.dram.perBankRdBursts::15          520                       # Per bank write bursts (Count)
system.mem_ctrl.dram.perBankWrBursts::0            44                       # Per bank write bursts (Count)
system.mem_ctrl.dram.perBankWrBursts::1            47                       # Per bank write bursts (Count)
system.mem_ctrl.dram.perBankWrBursts::2            22                       # Per bank write bursts (Count)
system.mem_ctrl.dram.perBankWrBursts::3             0                       # Per bank write bursts (Count)
system.mem_ctrl.dram.perBankWrBursts::4             2                       # Per bank write bursts (Count)
system.mem_ctrl.dram.perBankWrBursts::5             4                       # Per bank write bursts (Count)
system.mem_ctrl.dram.perBankWrBursts::6             0                       # Per bank write bursts (Count)
system.mem_ctrl.dram.perBankWrBursts::7            22                       # Per bank write bursts (Count)
system.mem_ctrl.dram.perBankWrBursts::8             0                       # Per bank write bursts (Count)
system.mem_ctrl.dram.perBankWrBursts::9            32                       # Per bank write bursts (Count)
system.mem_ctrl.dram.perBankWrBursts::10           22                       # Per bank write bursts (Count)
system.mem_ctrl.dram.perBankWrBursts::11           18                       # Per bank write bursts (Count)
system.mem_ctrl.dram.perBankWrBursts::12           16                       # Per bank write bursts (Count)
system.mem_ctrl.dram.perBankWrBursts::13           10                       # Per bank write bursts (Count)
system.mem_ctrl.dram.perBankWrBursts::14           14                       # Per bank write bursts (Count)
system.mem_ctrl.dram.perBankWrBursts::15           28                       # Per bank write bursts (Count)
system.mem_ctrl.dram.totQLat                250691500                       # Total ticks spent queuing (Tick)
system.mem_ctrl.dram.totBusLat               18144000                       # Total ticks spent in databus transfers (Tick)
system.mem_ctrl.dram.totMemAccLat           432131500                       # Total ticks spent from burst creation until serviced by the DRAM (Tick)
system.mem_ctrl.dram.avgQLat                 27633.54                       # Average queueing delay per DRAM burst ((Tick/Count))
system.mem_ctrl.dram.avgBusLat                2000.00                       # Average bus latency per DRAM burst ((Tick/Count))
system.mem_ctrl.dram.avgMemAccLat            47633.54                       # Average memory access latency per DRAM burst ((Tick/Count))
system.mem_ctrl.dram.readRowHits                 4779                       # Number of row buffer hits during reads (Count)
system.mem_ctrl.dram.writeRowHits                 192                       # Number of row buffer hits during writes (Count)
system.mem_ctrl.dram.readRowHitRate             52.68                       # Row buffer hit rate for reads (Ratio)
system.mem_ctrl.dram.writeRowHitRate            68.33                       # Row buffer hit rate for writes (Ratio)
system.mem_ctrl.dram.bytesPerActivate::samples         4382                       # Bytes accessed per row activation (Byte)
system.mem_ctrl.dram.bytesPerActivate::mean    68.301232                       # Bytes accessed per row activation (Byte)
system.mem_ctrl.dram.bytesPerActivate::gmean    66.656678                       # Bytes accessed per row activation (Byte)
system.mem_ctrl.dram.bytesPerActivate::stdev    20.419267                       # Bytes accessed per row activation (Byte)
system.mem_ctrl.dram.bytesPerActivate::32-63           19      0.43%      0.43% # Bytes accessed per row activation (Byte)
system.mem_ctrl.dram.bytesPerActivate::64-95         4118     93.98%     94.41% # Bytes accessed per row activation (Byte)
system.mem_ctrl.dram.bytesPerActivate::96-127            4      0.09%     94.50% # Bytes accessed per row activation (Byte)
system.mem_ctrl.dram.bytesPerActivate::128-159          195      4.45%     98.95% # Bytes accessed per row activation (Byte)
system.mem_ctrl.dram.bytesPerActivate::160-191            4      0.09%     99.04% # Bytes accessed per row activation (Byte)
system.mem_ctrl.dram.bytesPerActivate::192-223           25      0.57%     99.61% # Bytes accessed per row activation (Byte)
system.mem_ctrl.dram.bytesPerActivate::224-255            4      0.09%     99.70% # Bytes accessed per row activation (Byte)
system.mem_ctrl.dram.bytesPerActivate::256-287           11      0.25%     99.95% # Bytes accessed per row activation (Byte)
system.mem_ctrl.dram.bytesPerActivate::320-351            2      0.05%    100.00% # Bytes accessed per row activation (Byte)
system.mem_ctrl.dram.bytesPerActivate::total         4382                       # Bytes accessed per row activation (Byte)
system.mem_ctrl.dram.dramBytesRead             290304                       # Total bytes read (Byte)
system.mem_ctrl.dram.dramBytesWritten            8992                       # Total bytes written (Byte)
system.mem_ctrl.dram.avgRdBW               271.388176                       # Average DRAM read bandwidth in MiBytes/s ((Byte/Second))
system.mem_ctrl.dram.avgWrBW                 8.406093                       # Average DRAM write bandwidth in MiBytes/s ((Byte/Second))
system.mem_ctrl.dram.peakBW                  16000.00                       # Theoretical peak bandwidth in MiByte/s ((Byte/Second))
system.mem_ctrl.dram.busUtil                     1.75                       # Data bus utilization in percentage (Ratio)
system.mem_ctrl.dram.busUtilRead                 1.70                       # Data bus utilization in percentage for reads (Ratio)
system.mem_ctrl.dram.busUtilWrite                0.05                       # Data bus utilization in percentage for writes (Ratio)
system.mem_ctrl.dram.pageHitRate                53.15                       # Row buffer hit rate, read and write combined (Ratio)
system.mem_ctrl.dram.power_state.pwrStateResidencyTicks::UNDEFINED   1069700250                       # Cumulative time (in ticks) in various power states (Tick)
system.mem_ctrl.dram.rank0.actEnergy                0                       # Energy for activate commands per rank (pJ) (Joule)
system.mem_ctrl.dram.rank0.preEnergy                0                       # Energy for precharge commands per rank (pJ) (Joule)
system.mem_ctrl.dram.rank0.readEnergy               0                       # Energy for read commands per rank (pJ) (Joule)
system.mem_ctrl.dram.rank0.writeEnergy              0                       # Energy for write commands per rank (pJ) (Joule)
system.mem_ctrl.dram.rank0.refreshEnergy            0                       # Energy for refresh commands per rank (pJ) (Joule)
system.mem_ctrl.dram.rank0.actBackEnergy            0                       # Energy for active background per rank (pJ) (Joule)
system.mem_ctrl.dram.rank0.preBackEnergy            0                       # Energy for precharge background per rank (pJ) (Joule)
system.mem_ctrl.dram.rank0.actPowerDownEnergy            0                       # Energy for active power-down per rank (pJ) (Joule)
system.mem_ctrl.dram.rank0.prePowerDownEnergy            0                       # Energy for precharge power-down per rank (pJ) (Joule)
system.mem_ctrl.dram.rank0.selfRefreshEnergy            0                       # Energy for self refresh per rank (pJ) (Joule)
system.mem_ctrl.dram.rank0.totalEnergy              0                       # Total energy per rank (pJ) (Joule)
system.mem_ctrl.dram.rank0.averagePower             0                       # Core power per rank (mW) (Watt)
system.mem_ctrl.dram.rank0.totalIdleTime            0                       # Total Idle time Per DRAM Rank (Tick)
system.mem_ctrl.dram.rank0.pwrStateTime::IDLE    843831000                       # Time in different power states (Tick)
system.mem_ctrl.dram.rank0.pwrStateTime::REF     60500000                       # Time in different power states (Tick)
system.mem_ctrl.dram.rank0.pwrStateTime::SREF            0                       # Time in different power states (Tick)
system.mem_ctrl.dram.rank0.pwrStateTime::PRE_PDN            0                       # Time in different power states (Tick)
system.mem_ctrl.dram.rank0.pwrStateTime::ACT    165369250                       # Time in different power states (Tick)
system.mem_ctrl.dram.rank0.pwrStateTime::ACT_PDN            0                       # Time in different power states (Tick)
system.mem_ctrl.power_state.pwrStateResidencyTicks::UNDEFINED   1069700250                       # Cumulative time (in ticks) in various power states (Tick)
system.membus.transDist::ReadResp                4288                       # Transaction distribution (Count)
system.membus.transDist::WritebackDirty           156                       # Transaction distribution (Count)
system.membus.transDist::CleanEvict               497                       # Transaction distribution (Count)
system.membus.transDist::ReadExReq                248                       # Transaction distribution (Count)
system.membus.transDist::ReadExResp               248                       # Transaction distribution (Count)
system.membus.transDist::ReadSharedReq           4288                       # Transaction distribution (Count)
system.membus.pktCount_system.l2cache.mem_side_port::system.mem_ctrl.port         9725                       # Packet count per connected requestor and responder (Count)
system.membus.pktCount_system.l2cache.mem_side_port::total         9725                       # Packet count per connected requestor and responder (Count)
system.membus.pktCount::total                    9725                       # Packet count per connected requestor and responder (Count)
system.membus.pktSize_system.l2cache.mem_side_port::system.mem_ctrl.port       300288                       # Cumulative packet size per connected requestor and responder (Byte)
system.membus.pktSize_system.l2cache.mem_side_port::total       300288                       # Cumulative packet size per connected requestor and responder (Byte)
system.membus.pktSize::total                   300288                       # Cumulative packet size per connected requestor and responder (Byte)
system.membus.snoops                                0                       # Total snoops (Count)
system.membus.snoopTraffic                          0                       # Total snoop traffic (Byte)
system.membus.snoopFanout::samples               4536                       # Request fanout histogram (Count)
system.membus.snoopFanout::mean                     0                       # Request fanout histogram (Count)
system.membus.snoopFanout::stdev                    0                       # Request fanout histogram (Count)
system.membus.snoopFanout::underflows               0      0.00%      0.00% # Request fanout histogram (Count)
system.membus.snoopFanout::0                     4536    100.00%    100.00% # Request fanout histogram (Count)
system.membus.snoopFanout::1                        0      0.00%    100.00% # Request fanout histogram (Count)
system.membus.snoopFanout::overflows                0      0.00%    100.00% # Request fanout histogram (Count)
system.membus.snoopFanout::min_value                0                       # Request fanout histogram (Count)
system.membus.snoopFanout::max_value                0                       # Request fanout histogram (Count)
system.membus.snoopFanout::total                 4536                       # Request fanout histogram (Count)
system.membus.power_state.pwrStateResidencyTicks::UNDEFINED   1069700250                       # Cumulative time (in ticks) in various power states (Tick)
system.membus.reqLayer0.occupancy             1453250                       # Layer occupancy (ticks) (Tick)
system.membus.reqLayer0.utilization               0.0                       # Layer utilization (Ratio)
system.membus.respLayer0.occupancy            5670000                       # Layer occupancy (ticks) (Tick)
system.membus.respLayer0.utilization              0.0                       # Layer utilization (Ratio)
system.membus.snoop_filter.totRequests           5189                       # Total number of requests made to the snoop filter. (Count)
system.membus.snoop_filter.hitSingleRequests          653                       # Number of requests hitting in the snoop filter with a single holder of the requested data. (Count)
system.membus.snoop_filter.hitMultiRequests            0                       # Number of requests hitting in the snoop filter with multiple (>1) holders of the requested data. (Count)
system.membus.snoop_filter.totSnoops                0                       # Total number of snoops made to the snoop filter. (Count)
system.membus.snoop_filter.hitSingleSnoops            0                       # Number of snoops hitting in the snoop filter with a single holder of the requested data. (Count)
system.membus.snoop_filter.hitMultiSnoops            0                       # Number of snoops hitting in the snoop filter with multiple (>1) holders of the requested data. (Count)
system.workload.inst.arm                            0                       # number of arm instructions executed (Count)
system.workload.inst.quiesce                        0                       # number of quiesce instructions executed (Count)

---------- End Simulation Statistics   ----------
